* NGSPICE file created from cbx_1__0_.ext - technology: gf180mcuD

* Black-box entry subcircuit for gf180mcu_fd_sc_mcu7t5v0__antenna abstract view
.subckt gf180mcu_fd_sc_mcu7t5v0__antenna I VDD VNW VPW VSS
.ends

* Black-box entry subcircuit for gf180mcu_fd_sc_mcu7t5v0__fillcap_4 abstract view
.subckt gf180mcu_fd_sc_mcu7t5v0__fillcap_4 VDD VNW VPW VSS
.ends

* Black-box entry subcircuit for gf180mcu_fd_sc_mcu7t5v0__fill_2 abstract view
.subckt gf180mcu_fd_sc_mcu7t5v0__fill_2 VDD VNW VPW VSS
.ends

* Black-box entry subcircuit for gf180mcu_fd_sc_mcu7t5v0__filltie abstract view
.subckt gf180mcu_fd_sc_mcu7t5v0__filltie VDD VSS
.ends

* Black-box entry subcircuit for gf180mcu_fd_sc_mcu7t5v0__endcap abstract view
.subckt gf180mcu_fd_sc_mcu7t5v0__endcap VDD VSS
.ends

* Black-box entry subcircuit for gf180mcu_fd_sc_mcu7t5v0__clkinv_3 abstract view
.subckt gf180mcu_fd_sc_mcu7t5v0__clkinv_3 I ZN VDD VNW VPW VSS
.ends

* Black-box entry subcircuit for gf180mcu_fd_sc_mcu7t5v0__dffrnq_1 abstract view
.subckt gf180mcu_fd_sc_mcu7t5v0__dffrnq_1 D RN CLK Q VDD VNW VPW VSS
.ends

* Black-box entry subcircuit for gf180mcu_fd_sc_mcu7t5v0__fill_1 abstract view
.subckt gf180mcu_fd_sc_mcu7t5v0__fill_1 VDD VNW VPW VSS
.ends

* Black-box entry subcircuit for gf180mcu_fd_sc_mcu7t5v0__dlyb_1 abstract view
.subckt gf180mcu_fd_sc_mcu7t5v0__dlyb_1 I Z VDD VNW VPW VSS
.ends

* Black-box entry subcircuit for gf180mcu_fd_sc_mcu7t5v0__fillcap_8 abstract view
.subckt gf180mcu_fd_sc_mcu7t5v0__fillcap_8 VDD VNW VPW VSS
.ends

* Black-box entry subcircuit for gf180mcu_fd_sc_mcu7t5v0__clkbuf_4 abstract view
.subckt gf180mcu_fd_sc_mcu7t5v0__clkbuf_4 I Z VDD VNW VPW VSS
.ends

* Black-box entry subcircuit for gf180mcu_fd_sc_mcu7t5v0__buf_3 abstract view
.subckt gf180mcu_fd_sc_mcu7t5v0__buf_3 I Z VDD VNW VPW VSS
.ends

* Black-box entry subcircuit for gf180mcu_fd_sc_mcu7t5v0__fillcap_16 abstract view
.subckt gf180mcu_fd_sc_mcu7t5v0__fillcap_16 VDD VNW VPW VSS
.ends

* Black-box entry subcircuit for gf180mcu_fd_sc_mcu7t5v0__fillcap_64 abstract view
.subckt gf180mcu_fd_sc_mcu7t5v0__fillcap_64 VDD VNW VPW VSS
.ends

* Black-box entry subcircuit for gf180mcu_fd_sc_mcu7t5v0__clkbuf_3 abstract view
.subckt gf180mcu_fd_sc_mcu7t5v0__clkbuf_3 I Z VDD VNW VPW VSS
.ends

* Black-box entry subcircuit for gf180mcu_fd_sc_mcu7t5v0__clkbuf_16 abstract view
.subckt gf180mcu_fd_sc_mcu7t5v0__clkbuf_16 I Z VDD VNW VPW VSS
.ends

* Black-box entry subcircuit for gf180mcu_fd_sc_mcu7t5v0__clkbuf_1 abstract view
.subckt gf180mcu_fd_sc_mcu7t5v0__clkbuf_1 I Z VDD VNW VPW VSS
.ends

* Black-box entry subcircuit for gf180mcu_fd_sc_mcu7t5v0__fillcap_32 abstract view
.subckt gf180mcu_fd_sc_mcu7t5v0__fillcap_32 VDD VNW VPW VSS
.ends

* Black-box entry subcircuit for gf180mcu_fd_sc_mcu7t5v0__clkinv_4 abstract view
.subckt gf180mcu_fd_sc_mcu7t5v0__clkinv_4 I ZN VDD VNW VPW VSS
.ends

* Black-box entry subcircuit for gf180mcu_fd_sc_mcu7t5v0__clkinv_2 abstract view
.subckt gf180mcu_fd_sc_mcu7t5v0__clkinv_2 I ZN VDD VNW VPW VSS
.ends

* Black-box entry subcircuit for gf180mcu_fd_sc_mcu7t5v0__buf_12 abstract view
.subckt gf180mcu_fd_sc_mcu7t5v0__buf_12 I Z VDD VNW VPW VSS
.ends

* Black-box entry subcircuit for gf180mcu_fd_sc_mcu7t5v0__buf_1 abstract view
.subckt gf180mcu_fd_sc_mcu7t5v0__buf_1 I Z VDD VNW VPW VSS
.ends

* Black-box entry subcircuit for gf180mcu_fd_sc_mcu7t5v0__tiel abstract view
.subckt gf180mcu_fd_sc_mcu7t5v0__tiel ZN VDD VNW VPW VSS
.ends

* Black-box entry subcircuit for gf180mcu_fd_sc_mcu7t5v0__buf_8 abstract view
.subckt gf180mcu_fd_sc_mcu7t5v0__buf_8 I Z VDD VNW VPW VSS
.ends

.subckt cbx_1__0_ bottom_grid_top_width_0_height_0_subtile_1__pin_outpad_0_ bottom_grid_top_width_0_height_0_subtile_2__pin_outpad_0_
+ ccff_head ccff_tail chanx_left_in[0] chanx_left_in[10] chanx_left_in[11] chanx_left_in[12]
+ chanx_left_in[13] chanx_left_in[14] chanx_left_in[15] chanx_left_in[16] chanx_left_in[17]
+ chanx_left_in[18] chanx_left_in[19] chanx_left_in[1] chanx_left_in[2] chanx_left_in[3]
+ chanx_left_in[4] chanx_left_in[5] chanx_left_in[6] chanx_left_in[7] chanx_left_in[8]
+ chanx_left_in[9] chanx_left_out[0] chanx_left_out[10] chanx_left_out[11] chanx_left_out[12]
+ chanx_left_out[13] chanx_left_out[14] chanx_left_out[15] chanx_left_out[16] chanx_left_out[17]
+ chanx_left_out[18] chanx_left_out[19] chanx_left_out[1] chanx_left_out[2] chanx_left_out[3]
+ chanx_left_out[4] chanx_left_out[5] chanx_left_out[6] chanx_left_out[7] chanx_left_out[8]
+ chanx_left_out[9] chanx_right_in[0] chanx_right_in[10] chanx_right_in[11] chanx_right_in[12]
+ chanx_right_in[13] chanx_right_in[14] chanx_right_in[15] chanx_right_in[16] chanx_right_in[17]
+ chanx_right_in[18] chanx_right_in[19] chanx_right_in[1] chanx_right_in[2] chanx_right_in[3]
+ chanx_right_in[4] chanx_right_in[5] chanx_right_in[6] chanx_right_in[7] chanx_right_in[8]
+ chanx_right_in[9] chanx_right_out[0] chanx_right_out[10] chanx_right_out[11] chanx_right_out[12]
+ chanx_right_out[13] chanx_right_out[14] chanx_right_out[15] chanx_right_out[16]
+ chanx_right_out[17] chanx_right_out[18] chanx_right_out[19] chanx_right_out[1] chanx_right_out[2]
+ chanx_right_out[3] chanx_right_out[4] chanx_right_out[5] chanx_right_out[6] chanx_right_out[7]
+ chanx_right_out[8] chanx_right_out[9] pReset prog_clk top_grid_bottom_width_0_height_0_subtile_0__pin_I_10_
+ vdd vss top_grid_bottom_width_0_height_0_subtile_0__pin_I_2_ bottom_grid_top_width_0_height_0_subtile_0__pin_outpad_0_
+ bottom_grid_top_width_0_height_0_subtile_3__pin_outpad_0_ top_grid_bottom_width_0_height_0_subtile_0__pin_I_6_
XANTENNA__074__I _045_ vdd vdd vss vss gf180mcu_fd_sc_mcu7t5v0__antenna
XFILLER_0_13_40 vdd vdd vss vss gf180mcu_fd_sc_mcu7t5v0__fillcap_4
XFILLER_0_20_228 vdd vdd vss vss gf180mcu_fd_sc_mcu7t5v0__fillcap_4
XFILLER_0_18_18 vdd vdd vss vss gf180mcu_fd_sc_mcu7t5v0__fill_2
XTAP_TAPCELL_ROW_8_88 vdd vss gf180mcu_fd_sc_mcu7t5v0__filltie
XPHY_EDGE_ROW_20_Left_50 vdd vss gf180mcu_fd_sc_mcu7t5v0__endcap
XANTENNA_input36_I chanx_right_in[4] vdd vdd vss vss gf180mcu_fd_sc_mcu7t5v0__antenna
X_062_ _044_ _012_ vdd vdd vss vss gf180mcu_fd_sc_mcu7t5v0__clkinv_3
X_131_ net115 _037_ clknet_2_2__leaf_prog_clk mem_top_ipin_3.DFFR_4_.Q vdd vdd vss
+ vss gf180mcu_fd_sc_mcu7t5v0__dffrnq_1
XFILLER_0_10_41 vdd vdd vss vss gf180mcu_fd_sc_mcu7t5v0__fill_2
XFILLER_0_19_72 vdd vdd vss vss gf180mcu_fd_sc_mcu7t5v0__fill_1
X_114_ net110 _020_ clknet_2_3__leaf_prog_clk mem_top_ipin_0.DFFR_3_.Q vdd vdd vss
+ vss gf180mcu_fd_sc_mcu7t5v0__dffrnq_1
XFILLER_0_0_206 vdd vdd vss vss gf180mcu_fd_sc_mcu7t5v0__fill_2
Xhold41 mem_top_ipin_0.DFFR_3_.Q net131 vdd vdd vss vss gf180mcu_fd_sc_mcu7t5v0__dlyb_1
XFILLER_0_1_72 vdd vdd vss vss gf180mcu_fd_sc_mcu7t5v0__fill_1
XFILLER_0_1_50 vdd vdd vss vss gf180mcu_fd_sc_mcu7t5v0__fillcap_8
Xhold30 mem_bottom_ipin_0.DFFR_3_.Q net120 vdd vdd vss vss gf180mcu_fd_sc_mcu7t5v0__dlyb_1
XFILLER_0_21_142 vdd vdd vss vss gf180mcu_fd_sc_mcu7t5v0__fill_1
XFILLER_0_16_73 vdd vdd vss vss gf180mcu_fd_sc_mcu7t5v0__fill_1
XANTENNA__077__I _045_ vdd vdd vss vss gf180mcu_fd_sc_mcu7t5v0__antenna
Xoutput75 net75 chanx_right_out[1] vdd vdd vss vss gf180mcu_fd_sc_mcu7t5v0__clkbuf_4
Xoutput64 net64 chanx_right_out[0] vdd vdd vss vss gf180mcu_fd_sc_mcu7t5v0__buf_3
Xoutput53 net53 chanx_left_out[18] vdd vdd vss vss gf180mcu_fd_sc_mcu7t5v0__buf_3
XFILLER_0_27_72 vdd vdd vss vss gf180mcu_fd_sc_mcu7t5v0__fill_1
XFILLER_0_27_83 vdd vdd vss vss gf180mcu_fd_sc_mcu7t5v0__fillcap_16
XFILLER_0_17_212 vdd vdd vss vss gf180mcu_fd_sc_mcu7t5v0__fillcap_8
XFILLER_0_14_237 vdd vdd vss vss gf180mcu_fd_sc_mcu7t5v0__fill_2
XFILLER_0_13_74 vdd vdd vss vss gf180mcu_fd_sc_mcu7t5v0__fill_1
XFILLER_0_1_164 vdd vdd vss vss gf180mcu_fd_sc_mcu7t5v0__fill_2
XFILLER_0_9_220 vdd vdd vss vss gf180mcu_fd_sc_mcu7t5v0__fill_1
XTAP_TAPCELL_ROW_8_89 vdd vss gf180mcu_fd_sc_mcu7t5v0__filltie
XANTENNA_input29_I chanx_right_in[16] vdd vdd vss vss gf180mcu_fd_sc_mcu7t5v0__antenna
XPHY_EDGE_ROW_21_Right_21 vdd vss gf180mcu_fd_sc_mcu7t5v0__endcap
XPHY_EDGE_ROW_12_Right_12 vdd vss gf180mcu_fd_sc_mcu7t5v0__endcap
X_130_ net113 _036_ clknet_2_2__leaf_prog_clk net43 vdd vdd vss vss gf180mcu_fd_sc_mcu7t5v0__dffrnq_1
XANTENNA__130__CLK clknet_2_2__leaf_prog_clk vdd vdd vss vss gf180mcu_fd_sc_mcu7t5v0__antenna
X_061_ _044_ _011_ vdd vdd vss vss gf180mcu_fd_sc_mcu7t5v0__clkinv_3
XFILLER_0_29_6 vdd vdd vss vss gf180mcu_fd_sc_mcu7t5v0__fill_1
XFILLER_0_3_237 vdd vdd vss vss gf180mcu_fd_sc_mcu7t5v0__fillcap_4
XFILLER_0_18_181 vdd vdd vss vss gf180mcu_fd_sc_mcu7t5v0__fill_1
XFILLER_0_18_192 vdd vdd vss vss gf180mcu_fd_sc_mcu7t5v0__fill_2
X_113_ net131 _019_ clknet_2_3__leaf_prog_clk mem_top_ipin_0.DFFR_4_.Q vdd vdd vss
+ vss gf180mcu_fd_sc_mcu7t5v0__dffrnq_1
XTAP_TAPCELL_ROW_5_79 vdd vss gf180mcu_fd_sc_mcu7t5v0__filltie
Xhold20 mem_top_ipin_0.DFFR_2_.Q net110 vdd vdd vss vss gf180mcu_fd_sc_mcu7t5v0__dlyb_1
Xhold31 mem_bottom_ipin_1.DFFR_4_.Q net121 vdd vdd vss vss gf180mcu_fd_sc_mcu7t5v0__dlyb_1
XFILLER_0_15_162 vdd vdd vss vss gf180mcu_fd_sc_mcu7t5v0__fill_2
XFILLER_0_1_62 vdd vdd vss vss gf180mcu_fd_sc_mcu7t5v0__fill_2
XFILLER_0_6_18 vdd vdd vss vss gf180mcu_fd_sc_mcu7t5v0__fillcap_8
XANTENNA_input11_I chanx_left_in[18] vdd vdd vss vss gf180mcu_fd_sc_mcu7t5v0__antenna
XPHY_EDGE_ROW_6_Right_6 vdd vss gf180mcu_fd_sc_mcu7t5v0__endcap
XFILLER_0_8_148 vdd vdd vss vss gf180mcu_fd_sc_mcu7t5v0__fillcap_8
Xoutput76 net76 chanx_right_out[2] vdd vdd vss vss gf180mcu_fd_sc_mcu7t5v0__buf_3
XFILLER_0_26_224 vdd vdd vss vss gf180mcu_fd_sc_mcu7t5v0__fill_2
Xoutput54 net54 chanx_left_out[19] vdd vdd vss vss gf180mcu_fd_sc_mcu7t5v0__buf_3
Xoutput65 net65 chanx_right_out[10] vdd vdd vss vss gf180mcu_fd_sc_mcu7t5v0__buf_3
Xoutput43 net43 ccff_tail vdd vdd vss vss gf180mcu_fd_sc_mcu7t5v0__buf_3
XFILLER_0_9_2 vdd vdd vss vss gf180mcu_fd_sc_mcu7t5v0__fill_2
XFILLER_0_27_51 vdd vdd vss vss gf180mcu_fd_sc_mcu7t5v0__fill_2
XFILLER_0_27_40 vdd vdd vss vss gf180mcu_fd_sc_mcu7t5v0__fill_1
XFILLER_0_17_224 vdd vdd vss vss gf180mcu_fd_sc_mcu7t5v0__fill_1
XANTENNA_input3_I chanx_left_in[10] vdd vdd vss vss gf180mcu_fd_sc_mcu7t5v0__antenna
XFILLER_0_4_140 vdd vdd vss vss gf180mcu_fd_sc_mcu7t5v0__fill_1
XFILLER_0_4_173 vdd vdd vss vss gf180mcu_fd_sc_mcu7t5v0__fill_2
XFILLER_0_7_72 vdd vdd vss vss gf180mcu_fd_sc_mcu7t5v0__fillcap_16
XFILLER_0_28_127 vdd vdd vss vss gf180mcu_fd_sc_mcu7t5v0__fillcap_8
X_060_ _044_ _010_ vdd vdd vss vss gf180mcu_fd_sc_mcu7t5v0__clkinv_3
XFILLER_0_28_149 vdd vdd vss vss gf180mcu_fd_sc_mcu7t5v0__fill_2
XANTENNA_input41_I chanx_right_in[9] vdd vdd vss vss gf180mcu_fd_sc_mcu7t5v0__antenna
X_112_ net98 _018_ clknet_2_1__leaf_prog_clk mem_top_ipin_0.DFFR_5_.Q vdd vdd vss
+ vss gf180mcu_fd_sc_mcu7t5v0__dffrnq_1
XPHY_EDGE_ROW_8_Left_38 vdd vss gf180mcu_fd_sc_mcu7t5v0__endcap
XANTENNA__120__CLK clknet_2_3__leaf_prog_clk vdd vdd vss vss gf180mcu_fd_sc_mcu7t5v0__antenna
XFILLER_0_1_85 vdd vdd vss vss gf180mcu_fd_sc_mcu7t5v0__fillcap_4
XFILLER_0_21_177 vdd vdd vss vss gf180mcu_fd_sc_mcu7t5v0__fill_2
Xhold21 mem_top_ipin_1.DFFR_3_.Q net111 vdd vdd vss vss gf180mcu_fd_sc_mcu7t5v0__dlyb_1
Xhold32 mem_bottom_ipin_1.DFFR_1_.Q net122 vdd vdd vss vss gf180mcu_fd_sc_mcu7t5v0__dlyb_1
Xhold10 mem_top_ipin_3.DFFR_2_.Q net100 vdd vdd vss vss gf180mcu_fd_sc_mcu7t5v0__dlyb_1
XFILLER_0_29_200 vdd vdd vss vss gf180mcu_fd_sc_mcu7t5v0__fill_2
XFILLER_0_12_177 vdd vdd vss vss gf180mcu_fd_sc_mcu7t5v0__fillcap_16
Xoutput77 net77 chanx_right_out[3] vdd vdd vss vss gf180mcu_fd_sc_mcu7t5v0__buf_3
Xoutput66 net66 chanx_right_out[11] vdd vdd vss vss gf180mcu_fd_sc_mcu7t5v0__buf_3
Xoutput44 net44 chanx_left_out[0] vdd vdd vss vss gf180mcu_fd_sc_mcu7t5v0__buf_3
Xoutput55 net55 chanx_left_out[1] vdd vdd vss vss gf180mcu_fd_sc_mcu7t5v0__buf_3
XFILLER_0_27_63 vdd vdd vss vss gf180mcu_fd_sc_mcu7t5v0__fillcap_4
XTAP_TAPCELL_ROW_15_109 vdd vss gf180mcu_fd_sc_mcu7t5v0__filltie
XFILLER_0_4_185 vdd vdd vss vss gf180mcu_fd_sc_mcu7t5v0__fillcap_4
XFILLER_0_7_62 vdd vdd vss vss gf180mcu_fd_sc_mcu7t5v0__fillcap_8
XFILLER_0_23_206 vdd vdd vss vss gf180mcu_fd_sc_mcu7t5v0__fillcap_4
XFILLER_0_13_87 vdd vdd vss vss gf180mcu_fd_sc_mcu7t5v0__fill_2
XFILLER_0_4_30 vdd vdd vss vss gf180mcu_fd_sc_mcu7t5v0__fillcap_4
XFILLER_0_28_117 vdd vdd vss vss gf180mcu_fd_sc_mcu7t5v0__fill_2
XPHY_EDGE_ROW_24_Left_54 vdd vss gf180mcu_fd_sc_mcu7t5v0__endcap
XANTENNA_input34_I chanx_right_in[2] vdd vdd vss vss gf180mcu_fd_sc_mcu7t5v0__antenna
X_111_ net114 _017_ clknet_2_1__leaf_prog_clk mem_bottom_ipin_2.DFFR_0_.Q vdd vdd
+ vss vss gf180mcu_fd_sc_mcu7t5v0__dffrnq_1
XFILLER_0_15_164 vdd vdd vss vss gf180mcu_fd_sc_mcu7t5v0__fill_1
XFILLER_0_15_142 vdd vdd vss vss gf180mcu_fd_sc_mcu7t5v0__fillcap_16
Xhold11 mem_bottom_ipin_2.DFFR_3_.Q net101 vdd vdd vss vss gf180mcu_fd_sc_mcu7t5v0__dlyb_1
Xhold22 mem_bottom_ipin_1.DFFR_0_.Q net112 vdd vdd vss vss gf180mcu_fd_sc_mcu7t5v0__dlyb_1
Xhold33 mem_top_ipin_2.DFFR_4_.Q net123 vdd vdd vss vss gf180mcu_fd_sc_mcu7t5v0__dlyb_1
XFILLER_0_16_98 vdd vdd vss vss gf180mcu_fd_sc_mcu7t5v0__fillcap_4
XFILLER_0_16_65 vdd vdd vss vss gf180mcu_fd_sc_mcu7t5v0__fillcap_8
XFILLER_0_12_167 vdd vdd vss vss gf180mcu_fd_sc_mcu7t5v0__fillcap_8
Xoutput67 net67 chanx_right_out[12] vdd vdd vss vss gf180mcu_fd_sc_mcu7t5v0__buf_3
XFILLER_0_25_2 vdd vdd vss vss gf180mcu_fd_sc_mcu7t5v0__fillcap_64
Xoutput45 net45 chanx_left_out[10] vdd vdd vss vss gf180mcu_fd_sc_mcu7t5v0__clkbuf_3
Xoutput56 net56 chanx_left_out[2] vdd vdd vss vss gf180mcu_fd_sc_mcu7t5v0__buf_3
Xoutput78 net78 chanx_right_out[4] vdd vdd vss vss gf180mcu_fd_sc_mcu7t5v0__buf_3
XPHY_EDGE_ROW_11_Left_41 vdd vss gf180mcu_fd_sc_mcu7t5v0__endcap
XFILLER_0_26_237 vdd vdd vss vss gf180mcu_fd_sc_mcu7t5v0__fillcap_4
XFILLER_0_26_226 vdd vdd vss vss gf180mcu_fd_sc_mcu7t5v0__fill_1
XTAP_TAPCELL_ROW_18_118 vdd vss gf180mcu_fd_sc_mcu7t5v0__filltie
XANTENNA__133__CLK clknet_2_2__leaf_prog_clk vdd vdd vss vss gf180mcu_fd_sc_mcu7t5v0__antenna
XFILLER_0_7_96 vdd vdd vss vss gf180mcu_fd_sc_mcu7t5v0__fill_1
XFILLER_0_13_44 vdd vdd vss vss gf180mcu_fd_sc_mcu7t5v0__fill_1
XTAP_TAPCELL_ROW_20_124 vdd vss gf180mcu_fd_sc_mcu7t5v0__filltie
XFILLER_0_9_212 vdd vdd vss vss gf180mcu_fd_sc_mcu7t5v0__fillcap_8
XTAP_TAPCELL_ROW_0_60 vdd vss gf180mcu_fd_sc_mcu7t5v0__filltie
XFILLER_0_10_34 vdd vdd vss vss gf180mcu_fd_sc_mcu7t5v0__fill_1
XFILLER_0_10_89 vdd vdd vss vss gf180mcu_fd_sc_mcu7t5v0__fillcap_16
XANTENNA_input27_I chanx_right_in[14] vdd vdd vss vss gf180mcu_fd_sc_mcu7t5v0__antenna
XTAP_TAPCELL_ROW_9_91 vdd vss gf180mcu_fd_sc_mcu7t5v0__filltie
X_110_ net124 _016_ clknet_2_1__leaf_prog_clk mem_bottom_ipin_2.DFFR_1_.Q vdd vdd
+ vss vss gf180mcu_fd_sc_mcu7t5v0__dffrnq_1
XFILLER_0_21_88 vdd vdd vss vss gf180mcu_fd_sc_mcu7t5v0__fillcap_4
XFILLER_0_21_66 vdd vdd vss vss gf180mcu_fd_sc_mcu7t5v0__fillcap_4
Xhold34 mem_bottom_ipin_2.DFFR_0_.Q net124 vdd vdd vss vss gf180mcu_fd_sc_mcu7t5v0__dlyb_1
Xhold12 mem_top_ipin_2.DFFR_1_.Q net102 vdd vdd vss vss gf180mcu_fd_sc_mcu7t5v0__dlyb_1
Xhold23 mem_top_ipin_3.DFFR_4_.Q net113 vdd vdd vss vss gf180mcu_fd_sc_mcu7t5v0__dlyb_1
Xclkbuf_2_3__f_prog_clk clknet_0_prog_clk clknet_2_3__leaf_prog_clk vdd vdd vss vss
+ gf180mcu_fd_sc_mcu7t5v0__clkbuf_16
XFILLER_0_8_107 vdd vdd vss vss gf180mcu_fd_sc_mcu7t5v0__fill_2
Xoutput57 net57 chanx_left_out[3] vdd vdd vss vss gf180mcu_fd_sc_mcu7t5v0__clkbuf_3
XFILLER_0_18_2 vdd vdd vss vss gf180mcu_fd_sc_mcu7t5v0__fillcap_16
Xoutput46 net46 chanx_left_out[11] vdd vdd vss vss gf180mcu_fd_sc_mcu7t5v0__buf_3
Xoutput68 net68 chanx_right_out[13] vdd vdd vss vss gf180mcu_fd_sc_mcu7t5v0__clkbuf_4
XPHY_EDGE_ROW_28_Right_28 vdd vss gf180mcu_fd_sc_mcu7t5v0__endcap
Xoutput79 net79 chanx_right_out[5] vdd vdd vss vss gf180mcu_fd_sc_mcu7t5v0__buf_3
XPHY_EDGE_ROW_19_Right_19 vdd vss gf180mcu_fd_sc_mcu7t5v0__endcap
XTAP_TAPCELL_ROW_18_119 vdd vss gf180mcu_fd_sc_mcu7t5v0__filltie
XFILLER_0_27_43 vdd vdd vss vss gf180mcu_fd_sc_mcu7t5v0__fillcap_8
XFILLER_0_27_32 vdd vdd vss vss gf180mcu_fd_sc_mcu7t5v0__fillcap_8
XFILLER_0_4_132 vdd vdd vss vss gf180mcu_fd_sc_mcu7t5v0__fillcap_8
XTAP_TAPCELL_ROW_23_133 vdd vss gf180mcu_fd_sc_mcu7t5v0__filltie
XFILLER_0_7_2 vdd vdd vss vss gf180mcu_fd_sc_mcu7t5v0__fillcap_8
XANTENNA_input1_I ccff_head vdd vdd vss vss gf180mcu_fd_sc_mcu7t5v0__antenna
XTAP_TAPCELL_ROW_20_125 vdd vss gf180mcu_fd_sc_mcu7t5v0__filltie
XANTENNA__123__CLK clknet_2_3__leaf_prog_clk vdd vdd vss vss gf180mcu_fd_sc_mcu7t5v0__antenna
XFILLER_0_27_174 vdd vdd vss vss gf180mcu_fd_sc_mcu7t5v0__fillcap_16
XTAP_TAPCELL_ROW_0_61 vdd vss gf180mcu_fd_sc_mcu7t5v0__filltie
XTAP_TAPCELL_ROW_9_92 vdd vss gf180mcu_fd_sc_mcu7t5v0__filltie
XFILLER_0_18_174 vdd vdd vss vss gf180mcu_fd_sc_mcu7t5v0__fill_1
Xclkbuf_2_2__f_prog_clk clknet_0_prog_clk clknet_2_2__leaf_prog_clk vdd vdd vss vss
+ gf180mcu_fd_sc_mcu7t5v0__clkbuf_16
X_169_ net6 net68 vdd vdd vss vss gf180mcu_fd_sc_mcu7t5v0__clkbuf_1
XFILLER_0_24_177 vdd vdd vss vss gf180mcu_fd_sc_mcu7t5v0__fillcap_32
Xhold13 mem_bottom_ipin_2.DFFR_1_.Q net103 vdd vdd vss vss gf180mcu_fd_sc_mcu7t5v0__dlyb_1
Xhold24 mem_bottom_ipin_1.DFFR_5_.Q net114 vdd vdd vss vss gf180mcu_fd_sc_mcu7t5v0__dlyb_1
XFILLER_0_15_133 vdd vdd vss vss gf180mcu_fd_sc_mcu7t5v0__fillcap_4
XFILLER_0_1_66 vdd vdd vss vss gf180mcu_fd_sc_mcu7t5v0__fill_2
Xhold35 mem_top_ipin_2.DFFR_3_.Q net125 vdd vdd vss vss gf180mcu_fd_sc_mcu7t5v0__dlyb_1
XFILLER_0_21_136 vdd vdd vss vss gf180mcu_fd_sc_mcu7t5v0__fillcap_4
XFILLER_0_16_34 vdd vdd vss vss gf180mcu_fd_sc_mcu7t5v0__fill_1
XFILLER_0_16_45 vdd vdd vss vss gf180mcu_fd_sc_mcu7t5v0__fillcap_4
XTAP_TAPCELL_ROW_6_82 vdd vss gf180mcu_fd_sc_mcu7t5v0__filltie
XFILLER_0_12_103 vdd vdd vss vss gf180mcu_fd_sc_mcu7t5v0__fill_2
Xoutput47 net47 chanx_left_out[12] vdd vdd vss vss gf180mcu_fd_sc_mcu7t5v0__buf_3
Xoutput69 net69 chanx_right_out[14] vdd vdd vss vss gf180mcu_fd_sc_mcu7t5v0__clkbuf_4
Xoutput58 net58 chanx_left_out[4] vdd vdd vss vss gf180mcu_fd_sc_mcu7t5v0__buf_3
XTAP_TAPCELL_ROW_26_142 vdd vss gf180mcu_fd_sc_mcu7t5v0__filltie
XFILLER_0_9_6 vdd vdd vss vss gf180mcu_fd_sc_mcu7t5v0__fillcap_8
XFILLER_0_27_99 vdd vdd vss vss gf180mcu_fd_sc_mcu7t5v0__fillcap_8
XFILLER_0_27_55 vdd vdd vss vss gf180mcu_fd_sc_mcu7t5v0__fillcap_8
XFILLER_0_4_177 vdd vdd vss vss gf180mcu_fd_sc_mcu7t5v0__fillcap_8
XFILLER_0_7_10 vdd vdd vss vss gf180mcu_fd_sc_mcu7t5v0__fill_2
XTAP_TAPCELL_ROW_23_134 vdd vss gf180mcu_fd_sc_mcu7t5v0__filltie
XTAP_TAPCELL_ROW_20_126 vdd vss gf180mcu_fd_sc_mcu7t5v0__filltie
XFILLER_0_9_203 vdd vdd vss vss gf180mcu_fd_sc_mcu7t5v0__fill_2
XFILLER_0_24_34 vdd vdd vss vss gf180mcu_fd_sc_mcu7t5v0__fill_1
XFILLER_0_4_22 vdd vdd vss vss gf180mcu_fd_sc_mcu7t5v0__fillcap_8
Xclkbuf_2_1__f_prog_clk clknet_0_prog_clk clknet_2_1__leaf_prog_clk vdd vdd vss vss
+ gf180mcu_fd_sc_mcu7t5v0__clkbuf_16
XFILLER_0_27_142 vdd vdd vss vss gf180mcu_fd_sc_mcu7t5v0__fillcap_32
XFILLER_0_19_89 vdd vdd vss vss gf180mcu_fd_sc_mcu7t5v0__fill_1
XFILLER_0_19_34 vdd vdd vss vss gf180mcu_fd_sc_mcu7t5v0__fill_2
XTAP_TAPCELL_ROW_0_62 vdd vss gf180mcu_fd_sc_mcu7t5v0__filltie
XTAP_TAPCELL_ROW_9_93 vdd vss gf180mcu_fd_sc_mcu7t5v0__filltie
XPHY_EDGE_ROW_28_Left_58 vdd vss gf180mcu_fd_sc_mcu7t5v0__endcap
X_168_ net7 net69 vdd vdd vss vss gf180mcu_fd_sc_mcu7t5v0__clkbuf_1
XFILLER_0_24_101 vdd vdd vss vss gf180mcu_fd_sc_mcu7t5v0__fillcap_4
XANTENNA__113__CLK clknet_2_3__leaf_prog_clk vdd vdd vss vss gf180mcu_fd_sc_mcu7t5v0__antenna
X_099_ net1 _005_ clknet_2_0__leaf_prog_clk mem_bottom_ipin_0.DFFR_0_.Q vdd vdd vss
+ vss gf180mcu_fd_sc_mcu7t5v0__dffrnq_1
Xhold14 mem_top_ipin_0.DFFR_1_.Q net104 vdd vdd vss vss gf180mcu_fd_sc_mcu7t5v0__dlyb_1
XANTENNA_input32_I chanx_right_in[19] vdd vdd vss vss gf180mcu_fd_sc_mcu7t5v0__antenna
XFILLER_0_1_34 vdd vdd vss vss gf180mcu_fd_sc_mcu7t5v0__fillcap_16
Xhold25 mem_top_ipin_3.DFFR_3_.Q net115 vdd vdd vss vss gf180mcu_fd_sc_mcu7t5v0__dlyb_1
Xhold36 mem_bottom_ipin_0.DFFR_1_.Q net126 vdd vdd vss vss gf180mcu_fd_sc_mcu7t5v0__dlyb_1
XTAP_TAPCELL_ROW_29_151 vdd vss gf180mcu_fd_sc_mcu7t5v0__filltie
XFILLER_0_21_126 vdd vdd vss vss gf180mcu_fd_sc_mcu7t5v0__fill_2
XFILLER_0_12_115 vdd vdd vss vss gf180mcu_fd_sc_mcu7t5v0__fill_2
XTAP_TAPCELL_ROW_6_83 vdd vss gf180mcu_fd_sc_mcu7t5v0__filltie
XFILLER_0_8_109 vdd vdd vss vss gf180mcu_fd_sc_mcu7t5v0__fill_1
Xoutput59 net59 chanx_left_out[5] vdd vdd vss vss gf180mcu_fd_sc_mcu7t5v0__buf_3
XTAP_TAPCELL_ROW_26_143 vdd vss gf180mcu_fd_sc_mcu7t5v0__filltie
XPHY_EDGE_ROW_1_Right_1 vdd vss gf180mcu_fd_sc_mcu7t5v0__endcap
Xoutput48 net48 chanx_left_out[13] vdd vdd vss vss gf180mcu_fd_sc_mcu7t5v0__buf_3
XFILLER_0_27_67 vdd vdd vss vss gf180mcu_fd_sc_mcu7t5v0__fill_2
XFILLER_0_27_12 vdd vdd vss vss gf180mcu_fd_sc_mcu7t5v0__fillcap_4
XFILLER_0_17_207 vdd vdd vss vss gf180mcu_fd_sc_mcu7t5v0__fill_2
XPHY_EDGE_ROW_15_Left_45 vdd vss gf180mcu_fd_sc_mcu7t5v0__endcap
XFILLER_0_4_101 vdd vdd vss vss gf180mcu_fd_sc_mcu7t5v0__fillcap_4
XTAP_TAPCELL_ROW_23_135 vdd vss gf180mcu_fd_sc_mcu7t5v0__filltie
XFILLER_0_23_2 vdd vdd vss vss gf180mcu_fd_sc_mcu7t5v0__fillcap_64
XFILLER_0_4_189 vdd vdd vss vss gf180mcu_fd_sc_mcu7t5v0__fill_1
XFILLER_0_7_88 vdd vdd vss vss gf180mcu_fd_sc_mcu7t5v0__fillcap_8
XFILLER_0_22_221 vdd vdd vss vss gf180mcu_fd_sc_mcu7t5v0__fillcap_4
XFILLER_0_13_69 vdd vdd vss vss gf180mcu_fd_sc_mcu7t5v0__fill_1
XFILLER_0_1_137 vdd vdd vss vss gf180mcu_fd_sc_mcu7t5v0__fill_1
XTAP_TAPCELL_ROW_3_73 vdd vss gf180mcu_fd_sc_mcu7t5v0__filltie
Xclkbuf_2_0__f_prog_clk clknet_0_prog_clk clknet_2_0__leaf_prog_clk vdd vdd vss vss
+ gf180mcu_fd_sc_mcu7t5v0__clkbuf_16
XFILLER_0_9_237 vdd vdd vss vss gf180mcu_fd_sc_mcu7t5v0__fillcap_4
XFILLER_0_4_34 vdd vdd vss vss gf180mcu_fd_sc_mcu7t5v0__fill_1
XFILLER_0_10_235 vdd vdd vss vss gf180mcu_fd_sc_mcu7t5v0__fillcap_4
XFILLER_0_27_121 vdd vdd vss vss gf180mcu_fd_sc_mcu7t5v0__fillcap_16
XTAP_TAPCELL_ROW_0_63 vdd vss gf180mcu_fd_sc_mcu7t5v0__filltie
XFILLER_0_10_26 vdd vdd vss vss gf180mcu_fd_sc_mcu7t5v0__fillcap_8
XFILLER_0_10_37 vdd vdd vss vss gf180mcu_fd_sc_mcu7t5v0__fillcap_4
XFILLER_0_18_121 vdd vdd vss vss gf180mcu_fd_sc_mcu7t5v0__fill_1
X_167_ net8 net70 vdd vdd vss vss gf180mcu_fd_sc_mcu7t5v0__clkbuf_1
XPHY_EDGE_ROW_3_Left_33 vdd vss gf180mcu_fd_sc_mcu7t5v0__endcap
X_098_ net127 _004_ clknet_2_0__leaf_prog_clk mem_bottom_ipin_0.DFFR_1_.Q vdd vdd
+ vss vss gf180mcu_fd_sc_mcu7t5v0__dffrnq_1
XANTENNA_input25_I chanx_right_in[12] vdd vdd vss vss gf180mcu_fd_sc_mcu7t5v0__antenna
Xhold26 mem_top_ipin_1.DFFR_1_.Q net116 vdd vdd vss vss gf180mcu_fd_sc_mcu7t5v0__dlyb_1
Xhold37 mem_bottom_ipin_0.DFFR_0_.Q net127 vdd vdd vss vss gf180mcu_fd_sc_mcu7t5v0__dlyb_1
XTAP_TAPCELL_ROW_10_94 vdd vss gf180mcu_fd_sc_mcu7t5v0__filltie
Xhold15 mem_bottom_ipin_0.DFFR_4_.Q net105 vdd vdd vss vss gf180mcu_fd_sc_mcu7t5v0__dlyb_1
XFILLER_0_29_216 vdd vdd vss vss gf180mcu_fd_sc_mcu7t5v0__fillcap_4
XTAP_TAPCELL_ROW_29_152 vdd vss gf180mcu_fd_sc_mcu7t5v0__filltie
XTAP_TAPCELL_ROW_6_84 vdd vss gf180mcu_fd_sc_mcu7t5v0__filltie
Xoutput49 net49 chanx_left_out[14] vdd vdd vss vss gf180mcu_fd_sc_mcu7t5v0__buf_3
XTAP_TAPCELL_ROW_26_144 vdd vss gf180mcu_fd_sc_mcu7t5v0__filltie
XFILLER_0_27_24 vdd vdd vss vss gf180mcu_fd_sc_mcu7t5v0__fill_2
XPHY_EDGE_ROW_24_Right_24 vdd vss gf180mcu_fd_sc_mcu7t5v0__endcap
XFILLER_0_16_2 vdd vdd vss vss gf180mcu_fd_sc_mcu7t5v0__fillcap_8
XPHY_EDGE_ROW_15_Right_15 vdd vss gf180mcu_fd_sc_mcu7t5v0__endcap
XFILLER_0_4_157 vdd vdd vss vss gf180mcu_fd_sc_mcu7t5v0__fillcap_16
XANTENNA__126__CLK clknet_2_2__leaf_prog_clk vdd vdd vss vss gf180mcu_fd_sc_mcu7t5v0__antenna
XFILLER_0_1_105 vdd vdd vss vss gf180mcu_fd_sc_mcu7t5v0__fillcap_4
XTAP_TAPCELL_ROW_3_74 vdd vss gf180mcu_fd_sc_mcu7t5v0__filltie
XFILLER_0_5_2 vdd vdd vss vss gf180mcu_fd_sc_mcu7t5v0__fill_2
XTAP_TAPCELL_ROW_0_64 vdd vss gf180mcu_fd_sc_mcu7t5v0__filltie
XFILLER_0_27_111 vdd vdd vss vss gf180mcu_fd_sc_mcu7t5v0__fill_2
XFILLER_0_25_90 vdd vdd vss vss gf180mcu_fd_sc_mcu7t5v0__fillcap_32
XFILLER_0_2_222 vdd vdd vss vss gf180mcu_fd_sc_mcu7t5v0__fill_1
XFILLER_0_18_177 vdd vdd vss vss gf180mcu_fd_sc_mcu7t5v0__fill_2
X_166_ net9 net71 vdd vdd vss vss gf180mcu_fd_sc_mcu7t5v0__clkbuf_1
XFILLER_0_15_158 vdd vdd vss vss gf180mcu_fd_sc_mcu7t5v0__fillcap_4
XFILLER_0_1_58 vdd vdd vss vss gf180mcu_fd_sc_mcu7t5v0__fillcap_4
X_097_ net126 _003_ clknet_2_0__leaf_prog_clk mem_bottom_ipin_0.DFFR_2_.Q vdd vdd
+ vss vss gf180mcu_fd_sc_mcu7t5v0__dffrnq_1
Xhold27 mem_bottom_ipin_2.DFFR_2_.Q net117 vdd vdd vss vss gf180mcu_fd_sc_mcu7t5v0__dlyb_1
Xhold16 mem_top_ipin_1.DFFR_2_.Q net106 vdd vdd vss vss gf180mcu_fd_sc_mcu7t5v0__dlyb_1
XANTENNA_input18_I chanx_left_in[6] vdd vdd vss vss gf180mcu_fd_sc_mcu7t5v0__antenna
Xhold38 mem_top_ipin_1.DFFR_5_.Q net128 vdd vdd vss vss gf180mcu_fd_sc_mcu7t5v0__dlyb_1
XTAP_TAPCELL_ROW_10_95 vdd vss gf180mcu_fd_sc_mcu7t5v0__filltie
XTAP_TAPCELL_ROW_29_153 vdd vss gf180mcu_fd_sc_mcu7t5v0__filltie
XFILLER_0_16_37 vdd vdd vss vss gf180mcu_fd_sc_mcu7t5v0__fillcap_8
XFILLER_0_16_26 vdd vdd vss vss gf180mcu_fd_sc_mcu7t5v0__fillcap_8
X_149_ net26 net48 vdd vdd vss vss gf180mcu_fd_sc_mcu7t5v0__clkbuf_1
XFILLER_0_27_69 vdd vdd vss vss gf180mcu_fd_sc_mcu7t5v0__fill_1
XFILLER_0_17_209 vdd vdd vss vss gf180mcu_fd_sc_mcu7t5v0__fill_1
XFILLER_0_7_46 vdd vdd vss vss gf180mcu_fd_sc_mcu7t5v0__fillcap_16
XTAP_TAPCELL_ROW_3_75 vdd vss gf180mcu_fd_sc_mcu7t5v0__filltie
XFILLER_0_13_212 vdd vdd vss vss gf180mcu_fd_sc_mcu7t5v0__fill_2
XFILLER_0_24_37 vdd vdd vss vss gf180mcu_fd_sc_mcu7t5v0__fillcap_64
XANTENNA__116__CLK clknet_2_3__leaf_prog_clk vdd vdd vss vss gf180mcu_fd_sc_mcu7t5v0__antenna
XFILLER_0_5_220 vdd vdd vss vss gf180mcu_fd_sc_mcu7t5v0__fill_1
XANTENNA__050__I _043_ vdd vdd vss vss gf180mcu_fd_sc_mcu7t5v0__antenna
X_182_ net2 net64 vdd vdd vss vss gf180mcu_fd_sc_mcu7t5v0__clkbuf_1
XTAP_TAPCELL_ROW_0_65 vdd vss gf180mcu_fd_sc_mcu7t5v0__filltie
X_165_ net10 net72 vdd vdd vss vss gf180mcu_fd_sc_mcu7t5v0__clkbuf_1
X_096_ net119 _002_ clknet_2_0__leaf_prog_clk mem_bottom_ipin_0.DFFR_3_.Q vdd vdd
+ vss vss gf180mcu_fd_sc_mcu7t5v0__dffrnq_1
XFILLER_0_15_137 vdd vdd vss vss gf180mcu_fd_sc_mcu7t5v0__fill_2
Xhold28 mem_top_ipin_3.DFFR_0_.Q net118 vdd vdd vss vss gf180mcu_fd_sc_mcu7t5v0__dlyb_1
Xhold39 mem_top_ipin_2.DFFR_5_.Q net129 vdd vdd vss vss gf180mcu_fd_sc_mcu7t5v0__dlyb_1
Xhold17 mem_top_ipin_2.DFFR_2_.Q net107 vdd vdd vss vss gf180mcu_fd_sc_mcu7t5v0__dlyb_1
XTAP_TAPCELL_ROW_10_96 vdd vss gf180mcu_fd_sc_mcu7t5v0__filltie
XTAP_TAPCELL_ROW_29_154 vdd vss gf180mcu_fd_sc_mcu7t5v0__filltie
X_148_ net27 net49 vdd vdd vss vss gf180mcu_fd_sc_mcu7t5v0__clkbuf_1
XFILLER_0_14_181 vdd vdd vss vss gf180mcu_fd_sc_mcu7t5v0__fill_2
X_079_ _045_ _028_ vdd vdd vss vss gf180mcu_fd_sc_mcu7t5v0__clkinv_3
XFILLER_0_11_162 vdd vdd vss vss gf180mcu_fd_sc_mcu7t5v0__fill_2
XFILLER_0_19_240 vdd vdd vss vss gf180mcu_fd_sc_mcu7t5v0__fill_1
XANTENNA_input30_I chanx_right_in[17] vdd vdd vss vss gf180mcu_fd_sc_mcu7t5v0__antenna
XFILLER_0_4_115 vdd vdd vss vss gf180mcu_fd_sc_mcu7t5v0__fill_1
XANTENNA__053__I _043_ vdd vdd vss vss gf180mcu_fd_sc_mcu7t5v0__antenna
XPHY_EDGE_ROW_5_Right_5 vdd vss gf180mcu_fd_sc_mcu7t5v0__endcap
XPHY_EDGE_ROW_19_Left_49 vdd vss gf180mcu_fd_sc_mcu7t5v0__endcap
XFILLER_0_1_129 vdd vdd vss vss gf180mcu_fd_sc_mcu7t5v0__fillcap_8
XFILLER_0_9_207 vdd vdd vss vss gf180mcu_fd_sc_mcu7t5v0__fill_2
XFILLER_0_21_2 vdd vdd vss vss gf180mcu_fd_sc_mcu7t5v0__fillcap_64
XFILLER_0_4_37 vdd vdd vss vss gf180mcu_fd_sc_mcu7t5v0__fillcap_64
X_181_ net13 net75 vdd vdd vss vss gf180mcu_fd_sc_mcu7t5v0__clkbuf_1
XTAP_TAPCELL_ROW_0_66 vdd vss gf180mcu_fd_sc_mcu7t5v0__filltie
XFILLER_0_5_80 vdd vdd vss vss gf180mcu_fd_sc_mcu7t5v0__fill_2
X_164_ net11 net73 vdd vdd vss vss gf180mcu_fd_sc_mcu7t5v0__clkbuf_1
XFILLER_0_17_190 vdd vdd vss vss gf180mcu_fd_sc_mcu7t5v0__fill_1
X_095_ net120 _001_ clknet_2_0__leaf_prog_clk mem_bottom_ipin_0.DFFR_4_.Q vdd vdd
+ vss vss gf180mcu_fd_sc_mcu7t5v0__dffrnq_1
Xhold18 mem_top_ipin_0.DFFR_0_.Q net108 vdd vdd vss vss gf180mcu_fd_sc_mcu7t5v0__dlyb_1
XANTENNA__056__I _043_ vdd vdd vss vss gf180mcu_fd_sc_mcu7t5v0__antenna
Xhold29 mem_bottom_ipin_0.DFFR_2_.Q net119 vdd vdd vss vss gf180mcu_fd_sc_mcu7t5v0__dlyb_1
XANTENNA__129__CLK clknet_2_2__leaf_prog_clk vdd vdd vss vss gf180mcu_fd_sc_mcu7t5v0__antenna
XTAP_TAPCELL_ROW_29_155 vdd vss gf180mcu_fd_sc_mcu7t5v0__filltie
XPHY_EDGE_ROW_7_Left_37 vdd vss gf180mcu_fd_sc_mcu7t5v0__endcap
XFILLER_0_20_185 vdd vdd vss vss gf180mcu_fd_sc_mcu7t5v0__fill_1
XFILLER_0_20_174 vdd vdd vss vss gf180mcu_fd_sc_mcu7t5v0__fill_1
X_078_ _045_ _027_ vdd vdd vss vss gf180mcu_fd_sc_mcu7t5v0__clkinv_4
X_147_ net28 net50 vdd vdd vss vss gf180mcu_fd_sc_mcu7t5v0__clkbuf_1
XANTENNA_input23_I chanx_right_in[10] vdd vdd vss vss gf180mcu_fd_sc_mcu7t5v0__antenna
XFILLER_0_25_200 vdd vdd vss vss gf180mcu_fd_sc_mcu7t5v0__fillcap_4
XFILLER_0_22_203 vdd vdd vss vss gf180mcu_fd_sc_mcu7t5v0__fill_2
XPHY_EDGE_ROW_20_Right_20 vdd vss gf180mcu_fd_sc_mcu7t5v0__endcap
XTAP_TAPCELL_ROW_14_106 vdd vss gf180mcu_fd_sc_mcu7t5v0__filltie
XPHY_EDGE_ROW_11_Right_11 vdd vss gf180mcu_fd_sc_mcu7t5v0__endcap
XFILLER_0_1_119 vdd vdd vss vss gf180mcu_fd_sc_mcu7t5v0__fill_2
XFILLER_0_13_214 vdd vdd vss vss gf180mcu_fd_sc_mcu7t5v0__fill_1
XFILLER_0_10_239 vdd vdd vss vss gf180mcu_fd_sc_mcu7t5v0__fill_2
X_180_ net14 net76 vdd vdd vss vss gf180mcu_fd_sc_mcu7t5v0__clkbuf_1
XFILLER_0_3_2 vdd vdd vss vss gf180mcu_fd_sc_mcu7t5v0__fillcap_64
XFILLER_0_26_191 vdd vdd vss vss gf180mcu_fd_sc_mcu7t5v0__fillcap_4
X_163_ net12 net74 vdd vdd vss vss gf180mcu_fd_sc_mcu7t5v0__clkbuf_1
X_094_ net105 _000_ clknet_2_0__leaf_prog_clk mem_bottom_ipin_0.DFFR_5_.Q vdd vdd
+ vss vss gf180mcu_fd_sc_mcu7t5v0__dffrnq_1
XPHY_EDGE_ROW_23_Left_53 vdd vss gf180mcu_fd_sc_mcu7t5v0__endcap
XANTENNA__072__I _045_ vdd vdd vss vss gf180mcu_fd_sc_mcu7t5v0__antenna
Xhold19 mem_top_ipin_1.DFFR_0_.Q net109 vdd vdd vss vss gf180mcu_fd_sc_mcu7t5v0__dlyb_1
XFILLER_0_15_139 vdd vdd vss vss gf180mcu_fd_sc_mcu7t5v0__fill_1
XTAP_TAPCELL_ROW_29_156 vdd vss gf180mcu_fd_sc_mcu7t5v0__filltie
X_146_ net29 net51 vdd vdd vss vss gf180mcu_fd_sc_mcu7t5v0__clkbuf_1
X_077_ _045_ _026_ vdd vdd vss vss gf180mcu_fd_sc_mcu7t5v0__clkinv_4