* NGSPICE file created from cby_1__1_.ext - technology: gf180mcuD

* Black-box entry subcircuit for gf180mcu_fd_sc_mcu7t5v0__fillcap_4 abstract view
.subckt gf180mcu_fd_sc_mcu7t5v0__fillcap_4 VDD VNW VPW VSS
.ends

* Black-box entry subcircuit for gf180mcu_fd_sc_mcu7t5v0__filltie abstract view
.subckt gf180mcu_fd_sc_mcu7t5v0__filltie VDD VSS
.ends

* Black-box entry subcircuit for gf180mcu_fd_sc_mcu7t5v0__endcap abstract view
.subckt gf180mcu_fd_sc_mcu7t5v0__endcap VDD VSS
.ends

* Black-box entry subcircuit for gf180mcu_fd_sc_mcu7t5v0__antenna abstract view
.subckt gf180mcu_fd_sc_mcu7t5v0__antenna I VDD VNW VPW VSS
.ends

* Black-box entry subcircuit for gf180mcu_fd_sc_mcu7t5v0__clkbuf_1 abstract view
.subckt gf180mcu_fd_sc_mcu7t5v0__clkbuf_1 I Z VDD VNW VPW VSS
.ends

* Black-box entry subcircuit for gf180mcu_fd_sc_mcu7t5v0__clkinv_4 abstract view
.subckt gf180mcu_fd_sc_mcu7t5v0__clkinv_4 I ZN VDD VNW VPW VSS
.ends

* Black-box entry subcircuit for gf180mcu_fd_sc_mcu7t5v0__fill_2 abstract view
.subckt gf180mcu_fd_sc_mcu7t5v0__fill_2 VDD VNW VPW VSS
.ends

* Black-box entry subcircuit for gf180mcu_fd_sc_mcu7t5v0__fill_1 abstract view
.subckt gf180mcu_fd_sc_mcu7t5v0__fill_1 VDD VNW VPW VSS
.ends

* Black-box entry subcircuit for gf180mcu_fd_sc_mcu7t5v0__dffrnq_1 abstract view
.subckt gf180mcu_fd_sc_mcu7t5v0__dffrnq_1 D RN CLK Q VDD VNW VPW VSS
.ends

* Black-box entry subcircuit for gf180mcu_fd_sc_mcu7t5v0__fillcap_8 abstract view
.subckt gf180mcu_fd_sc_mcu7t5v0__fillcap_8 VDD VNW VPW VSS
.ends

* Black-box entry subcircuit for gf180mcu_fd_sc_mcu7t5v0__dlyb_1 abstract view
.subckt gf180mcu_fd_sc_mcu7t5v0__dlyb_1 I Z VDD VNW VPW VSS
.ends

* Black-box entry subcircuit for gf180mcu_fd_sc_mcu7t5v0__buf_3 abstract view
.subckt gf180mcu_fd_sc_mcu7t5v0__buf_3 I Z VDD VNW VPW VSS
.ends

* Black-box entry subcircuit for gf180mcu_fd_sc_mcu7t5v0__fillcap_16 abstract view
.subckt gf180mcu_fd_sc_mcu7t5v0__fillcap_16 VDD VNW VPW VSS
.ends

* Black-box entry subcircuit for gf180mcu_fd_sc_mcu7t5v0__clkbuf_4 abstract view
.subckt gf180mcu_fd_sc_mcu7t5v0__clkbuf_4 I Z VDD VNW VPW VSS
.ends

* Black-box entry subcircuit for gf180mcu_fd_sc_mcu7t5v0__clkbuf_3 abstract view
.subckt gf180mcu_fd_sc_mcu7t5v0__clkbuf_3 I Z VDD VNW VPW VSS
.ends

* Black-box entry subcircuit for gf180mcu_fd_sc_mcu7t5v0__buf_12 abstract view
.subckt gf180mcu_fd_sc_mcu7t5v0__buf_12 I Z VDD VNW VPW VSS
.ends

* Black-box entry subcircuit for gf180mcu_fd_sc_mcu7t5v0__tiel abstract view
.subckt gf180mcu_fd_sc_mcu7t5v0__tiel ZN VDD VNW VPW VSS
.ends

* Black-box entry subcircuit for gf180mcu_fd_sc_mcu7t5v0__clkbuf_16 abstract view
.subckt gf180mcu_fd_sc_mcu7t5v0__clkbuf_16 I Z VDD VNW VPW VSS
.ends

* Black-box entry subcircuit for gf180mcu_fd_sc_mcu7t5v0__fillcap_32 abstract view
.subckt gf180mcu_fd_sc_mcu7t5v0__fillcap_32 VDD VNW VPW VSS
.ends

* Black-box entry subcircuit for gf180mcu_fd_sc_mcu7t5v0__buf_8 abstract view
.subckt gf180mcu_fd_sc_mcu7t5v0__buf_8 I Z VDD VNW VPW VSS
.ends

* Black-box entry subcircuit for gf180mcu_fd_sc_mcu7t5v0__fillcap_64 abstract view
.subckt gf180mcu_fd_sc_mcu7t5v0__fillcap_64 VDD VNW VPW VSS
.ends

* Black-box entry subcircuit for gf180mcu_fd_sc_mcu7t5v0__clkinv_2 abstract view
.subckt gf180mcu_fd_sc_mcu7t5v0__clkinv_2 I ZN VDD VNW VPW VSS
.ends

* Black-box entry subcircuit for gf180mcu_fd_sc_mcu7t5v0__buf_1 abstract view
.subckt gf180mcu_fd_sc_mcu7t5v0__buf_1 I Z VDD VNW VPW VSS
.ends

.subckt cby_1__1_ ccff_head ccff_tail chany_bottom_in[0] chany_bottom_in[10] chany_bottom_in[11]
+ chany_bottom_in[12] chany_bottom_in[13] chany_bottom_in[14] chany_bottom_in[15]
+ chany_bottom_in[16] chany_bottom_in[17] chany_bottom_in[18] chany_bottom_in[19]
+ chany_bottom_in[1] chany_bottom_in[2] chany_bottom_in[3] chany_bottom_in[4] chany_bottom_in[5]
+ chany_bottom_in[6] chany_bottom_in[7] chany_bottom_in[8] chany_bottom_in[9] chany_bottom_out[0]
+ chany_bottom_out[10] chany_bottom_out[11] chany_bottom_out[12] chany_bottom_out[13]
+ chany_bottom_out[14] chany_bottom_out[15] chany_bottom_out[16] chany_bottom_out[17]
+ chany_bottom_out[18] chany_bottom_out[19] chany_bottom_out[1] chany_bottom_out[2]
+ chany_bottom_out[3] chany_bottom_out[4] chany_bottom_out[5] chany_bottom_out[6]
+ chany_bottom_out[7] chany_bottom_out[8] chany_bottom_out[9] chany_top_in[0] chany_top_in[10]
+ chany_top_in[11] chany_top_in[12] chany_top_in[13] chany_top_in[14] chany_top_in[15]
+ chany_top_in[16] chany_top_in[17] chany_top_in[18] chany_top_in[19] chany_top_in[1]
+ chany_top_in[2] chany_top_in[3] chany_top_in[4] chany_top_in[5] chany_top_in[6]
+ chany_top_in[7] chany_top_in[8] chany_top_in[9] chany_top_out[0] chany_top_out[10]
+ chany_top_out[11] chany_top_out[12] chany_top_out[13] chany_top_out[14] chany_top_out[15]
+ chany_top_out[16] chany_top_out[17] chany_top_out[18] chany_top_out[19] chany_top_out[1]
+ chany_top_out[2] chany_top_out[3] chany_top_out[4] chany_top_out[5] chany_top_out[6]
+ chany_top_out[7] chany_top_out[8] chany_top_out[9] left_grid_right_width_0_height_0_subtile_0__pin_I_1_
+ left_grid_right_width_0_height_0_subtile_0__pin_I_5_ pReset prog_clk right_grid_left_width_0_height_0_subtile_0__pin_I_3_
+ right_grid_left_width_0_height_0_subtile_0__pin_I_7_ vdd vss right_grid_left_width_0_height_0_subtile_0__pin_I_11_
+ left_grid_right_width_0_height_0_subtile_0__pin_I_9_
XFILLER_0_4_171 vdd vdd vss vss gf180mcu_fd_sc_mcu7t5v0__fillcap_4
XFILLER_0_18_18 vdd vdd vss vss gf180mcu_fd_sc_mcu7t5v0__fillcap_4
XTAP_TAPCELL_ROW_8_88 vdd vss gf180mcu_fd_sc_mcu7t5v0__filltie
XPHY_EDGE_ROW_20_Left_50 vdd vss gf180mcu_fd_sc_mcu7t5v0__endcap
XANTENNA__069__I _039_ vdd vdd vss vss gf180mcu_fd_sc_mcu7t5v0__antenna
X_131_ net23 net45 vdd vdd vss vss gf180mcu_fd_sc_mcu7t5v0__clkbuf_1
X_062_ _038_ _019_ vdd vdd vss vss gf180mcu_fd_sc_mcu7t5v0__clkinv_4
XANTENNA_input36_I chany_top_in[4] vdd vdd vss vss gf180mcu_fd_sc_mcu7t5v0__antenna
XFILLER_0_10_63 vdd vdd vss vss gf180mcu_fd_sc_mcu7t5v0__fill_2
XFILLER_0_25_139 vdd vdd vss vss gf180mcu_fd_sc_mcu7t5v0__fill_1
XFILLER_0_0_206 vdd vdd vss vss gf180mcu_fd_sc_mcu7t5v0__fillcap_4
X_114_ net113 _034_ clknet_2_0__leaf_prog_clk mem_right_ipin_2.DFFR_1_.Q vdd vdd vss
+ vss gf180mcu_fd_sc_mcu7t5v0__dffrnq_1
X_045_ _037_ _003_ vdd vdd vss vss gf180mcu_fd_sc_mcu7t5v0__clkinv_4
XFILLER_0_27_2 vdd vdd vss vss gf180mcu_fd_sc_mcu7t5v0__fill_2
XFILLER_0_16_117 vdd vdd vss vss gf180mcu_fd_sc_mcu7t5v0__fillcap_8
XFILLER_0_26_18 vdd vdd vss vss gf180mcu_fd_sc_mcu7t5v0__fillcap_4
Xhold30 mem_right_ipin_0.DFFR_1_.Q net119 vdd vdd vss vss gf180mcu_fd_sc_mcu7t5v0__dlyb_1
XFILLER_0_1_72 vdd vdd vss vss gf180mcu_fd_sc_mcu7t5v0__fill_2
XFILLER_0_21_175 vdd vdd vss vss gf180mcu_fd_sc_mcu7t5v0__fill_1
XFILLER_0_21_142 vdd vdd vss vss gf180mcu_fd_sc_mcu7t5v0__fillcap_8
XFILLER_0_13_109 vdd vdd vss vss gf180mcu_fd_sc_mcu7t5v0__fill_1
Xoutput75 net75 chany_top_out[1] vdd vdd vss vss gf180mcu_fd_sc_mcu7t5v0__buf_3
Xoutput53 net53 chany_bottom_out[18] vdd vdd vss vss gf180mcu_fd_sc_mcu7t5v0__buf_3
Xoutput64 net64 chany_top_out[0] vdd vdd vss vss gf180mcu_fd_sc_mcu7t5v0__buf_3
XFILLER_0_27_72 vdd vdd vss vss gf180mcu_fd_sc_mcu7t5v0__fillcap_4
XFILLER_0_17_212 vdd vdd vss vss gf180mcu_fd_sc_mcu7t5v0__fillcap_8
XFILLER_0_2_8 vdd vdd vss vss gf180mcu_fd_sc_mcu7t5v0__fill_2
XFILLER_0_1_142 vdd vdd vss vss gf180mcu_fd_sc_mcu7t5v0__fillcap_16
XFILLER_0_1_131 vdd vdd vss vss gf180mcu_fd_sc_mcu7t5v0__fillcap_8
XFILLER_0_9_220 vdd vdd vss vss gf180mcu_fd_sc_mcu7t5v0__fill_1
XFILLER_0_11_218 vdd vdd vss vss gf180mcu_fd_sc_mcu7t5v0__fill_2
XTAP_TAPCELL_ROW_8_89 vdd vss gf180mcu_fd_sc_mcu7t5v0__filltie
XANTENNA_input29_I chany_top_in[16] vdd vdd vss vss gf180mcu_fd_sc_mcu7t5v0__antenna
XPHY_EDGE_ROW_21_Right_21 vdd vss gf180mcu_fd_sc_mcu7t5v0__endcap
XPHY_EDGE_ROW_12_Right_12 vdd vss gf180mcu_fd_sc_mcu7t5v0__endcap
X_130_ net24 net46 vdd vdd vss vss gf180mcu_fd_sc_mcu7t5v0__clkbuf_1
X_061_ _038_ _018_ vdd vdd vss vss gf180mcu_fd_sc_mcu7t5v0__clkinv_4
XFILLER_0_3_226 vdd vdd vss vss gf180mcu_fd_sc_mcu7t5v0__fill_1
XFILLER_0_27_170 vdd vdd vss vss gf180mcu_fd_sc_mcu7t5v0__fill_2
XFILLER_0_3_237 vdd vdd vss vss gf180mcu_fd_sc_mcu7t5v0__fill_2
XTAP_TAPCELL_ROW_5_79 vdd vss gf180mcu_fd_sc_mcu7t5v0__filltie
X_113_ net96 _033_ clknet_2_0__leaf_prog_clk mem_right_ipin_2.DFFR_2_.Q vdd vdd vss
+ vss gf180mcu_fd_sc_mcu7t5v0__dffrnq_1
X_044_ _037_ _002_ vdd vdd vss vss gf180mcu_fd_sc_mcu7t5v0__clkinv_4
XFILLER_0_16_129 vdd vdd vss vss gf180mcu_fd_sc_mcu7t5v0__fill_1
Xhold31 mem_right_ipin_0.DFFR_0_.Q net120 vdd vdd vss vss gf180mcu_fd_sc_mcu7t5v0__dlyb_1
Xhold20 mem_right_ipin_0.DFFR_5_.Q net109 vdd vdd vss vss gf180mcu_fd_sc_mcu7t5v0__dlyb_1
XFILLER_0_16_74 vdd vdd vss vss gf180mcu_fd_sc_mcu7t5v0__fill_2
XFILLER_0_16_41 vdd vdd vss vss gf180mcu_fd_sc_mcu7t5v0__fill_1
XANTENNA_input11_I chany_bottom_in[18] vdd vdd vss vss gf180mcu_fd_sc_mcu7t5v0__antenna
XPHY_EDGE_ROW_6_Right_6 vdd vss gf180mcu_fd_sc_mcu7t5v0__endcap
Xoutput76 net76 chany_top_out[2] vdd vdd vss vss gf180mcu_fd_sc_mcu7t5v0__buf_3
Xoutput65 net65 chany_top_out[10] vdd vdd vss vss gf180mcu_fd_sc_mcu7t5v0__buf_3
Xoutput54 net54 chany_bottom_out[19] vdd vdd vss vss gf180mcu_fd_sc_mcu7t5v0__buf_3
Xoutput43 net43 ccff_tail vdd vdd vss vss gf180mcu_fd_sc_mcu7t5v0__buf_3
XANTENNA_input3_I chany_bottom_in[10] vdd vdd vss vss gf180mcu_fd_sc_mcu7t5v0__antenna
XFILLER_0_11_6 vdd vdd vss vss gf180mcu_fd_sc_mcu7t5v0__fill_2
X_060_ _038_ _017_ vdd vdd vss vss gf180mcu_fd_sc_mcu7t5v0__clkinv_4
XFILLER_0_10_65 vdd vdd vss vss gf180mcu_fd_sc_mcu7t5v0__fill_1
X_043_ _037_ _001_ vdd vdd vss vss gf180mcu_fd_sc_mcu7t5v0__clkinv_4
XANTENNA_input41_I chany_top_in[9] vdd vdd vss vss gf180mcu_fd_sc_mcu7t5v0__antenna
X_112_ net115 _032_ clknet_2_0__leaf_prog_clk mem_right_ipin_2.DFFR_3_.Q vdd vdd vss
+ vss gf180mcu_fd_sc_mcu7t5v0__dffrnq_1
XPHY_EDGE_ROW_8_Left_38 vdd vss gf180mcu_fd_sc_mcu7t5v0__endcap
XFILLER_0_15_174 vdd vdd vss vss gf180mcu_fd_sc_mcu7t5v0__fill_2
Xhold21 mem_left_ipin_2.DFFR_3_.Q net110 vdd vdd vss vss gf180mcu_fd_sc_mcu7t5v0__dlyb_1
Xhold10 mem_left_ipin_1.DFFR_4_.Q net99 vdd vdd vss vss gf180mcu_fd_sc_mcu7t5v0__dlyb_1
Xhold32 mem_right_ipin_1.DFFR_1_.Q net121 vdd vdd vss vss gf180mcu_fd_sc_mcu7t5v0__dlyb_1
XFILLER_0_12_177 vdd vdd vss vss gf180mcu_fd_sc_mcu7t5v0__fill_2
Xoutput66 net66 chany_top_out[11] vdd vdd vss vss gf180mcu_fd_sc_mcu7t5v0__clkbuf_4
Xoutput44 net44 chany_bottom_out[0] vdd vdd vss vss gf180mcu_fd_sc_mcu7t5v0__buf_3
Xoutput77 net77 chany_top_out[3] vdd vdd vss vss gf180mcu_fd_sc_mcu7t5v0__buf_3
Xoutput55 net55 chany_bottom_out[1] vdd vdd vss vss gf180mcu_fd_sc_mcu7t5v0__buf_3
XFILLER_0_7_193 vdd vdd vss vss gf180mcu_fd_sc_mcu7t5v0__fillcap_4
XTAP_TAPCELL_ROW_15_109 vdd vss gf180mcu_fd_sc_mcu7t5v0__filltie
XFILLER_0_4_185 vdd vdd vss vss gf180mcu_fd_sc_mcu7t5v0__fillcap_4
XFILLER_0_23_228 vdd vdd vss vss gf180mcu_fd_sc_mcu7t5v0__fill_1
XFILLER_0_1_188 vdd vdd vss vss gf180mcu_fd_sc_mcu7t5v0__fillcap_8
XFILLER_0_1_166 vdd vdd vss vss gf180mcu_fd_sc_mcu7t5v0__fillcap_4
XFILLER_0_28_139 vdd vdd vss vss gf180mcu_fd_sc_mcu7t5v0__fillcap_4
XPHY_EDGE_ROW_24_Left_54 vdd vss gf180mcu_fd_sc_mcu7t5v0__endcap
XFILLER_0_19_64 vdd vdd vss vss gf180mcu_fd_sc_mcu7t5v0__fillcap_4
XFILLER_0_10_33 vdd vdd vss vss gf180mcu_fd_sc_mcu7t5v0__fill_2
XFILLER_0_27_172 vdd vdd vss vss gf180mcu_fd_sc_mcu7t5v0__fill_1
XANTENNA_input34_I chany_top_in[2] vdd vdd vss vss gf180mcu_fd_sc_mcu7t5v0__antenna
XFILLER_0_18_172 vdd vdd vss vss gf180mcu_fd_sc_mcu7t5v0__fill_2
X_111_ net92 _031_ clknet_2_2__leaf_prog_clk mem_right_ipin_2.DFFR_4_.Q vdd vdd vss
+ vss gf180mcu_fd_sc_mcu7t5v0__dffrnq_1
X_042_ _037_ _000_ vdd vdd vss vss gf180mcu_fd_sc_mcu7t5v0__clkinv_4
XFILLER_0_21_167 vdd vdd vss vss gf180mcu_fd_sc_mcu7t5v0__fillcap_8
XFILLER_0_21_134 vdd vdd vss vss gf180mcu_fd_sc_mcu7t5v0__fillcap_4
Xhold11 mem_left_ipin_1.DFFR_5_.Q net100 vdd vdd vss vss gf180mcu_fd_sc_mcu7t5v0__dlyb_1
Xhold22 mem_left_ipin_1.DFFR_2_.Q net111 vdd vdd vss vss gf180mcu_fd_sc_mcu7t5v0__dlyb_1
XFILLER_0_15_197 vdd vdd vss vss gf180mcu_fd_sc_mcu7t5v0__fill_1
Xhold33 mem_right_ipin_1.DFFR_4_.Q net122 vdd vdd vss vss gf180mcu_fd_sc_mcu7t5v0__dlyb_1
XFILLER_0_29_201 vdd vdd vss vss gf180mcu_fd_sc_mcu7t5v0__fill_2
XFILLER_0_8_117 vdd vdd vss vss gf180mcu_fd_sc_mcu7t5v0__fill_1
Xoutput78 net78 chany_top_out[4] vdd vdd vss vss gf180mcu_fd_sc_mcu7t5v0__buf_3
Xoutput56 net56 chany_bottom_out[2] vdd vdd vss vss gf180mcu_fd_sc_mcu7t5v0__buf_3
Xoutput45 net45 chany_bottom_out[10] vdd vdd vss vss gf180mcu_fd_sc_mcu7t5v0__buf_3
Xoutput67 net67 chany_top_out[12] vdd vdd vss vss gf180mcu_fd_sc_mcu7t5v0__clkbuf_3
XPHY_EDGE_ROW_11_Left_41 vdd vss gf180mcu_fd_sc_mcu7t5v0__endcap
XFILLER_0_26_237 vdd vdd vss vss gf180mcu_fd_sc_mcu7t5v0__fill_2
XFILLER_0_26_226 vdd vdd vss vss gf180mcu_fd_sc_mcu7t5v0__fill_1
XTAP_TAPCELL_ROW_18_118 vdd vss gf180mcu_fd_sc_mcu7t5v0__filltie
XANTENNA__110__CLK clknet_2_2__leaf_prog_clk vdd vdd vss vss gf180mcu_fd_sc_mcu7t5v0__antenna
XFILLER_0_11_8 vdd vdd vss vss gf180mcu_fd_sc_mcu7t5v0__fill_1
XFILLER_0_17_237 vdd vdd vss vss gf180mcu_fd_sc_mcu7t5v0__fillcap_4
XTAP_TAPCELL_ROW_20_124 vdd vss gf180mcu_fd_sc_mcu7t5v0__filltie
XFILLER_0_13_99 vdd vdd vss vss gf180mcu_fd_sc_mcu7t5v0__fillcap_8
XFILLER_0_9_212 vdd vdd vss vss gf180mcu_fd_sc_mcu7t5v0__fill_2
XFILLER_0_24_32 vdd vdd vss vss gf180mcu_fd_sc_mcu7t5v0__fill_2
XFILLER_0_6_226 vdd vdd vss vss gf180mcu_fd_sc_mcu7t5v0__fill_1
XFILLER_0_6_237 vdd vdd vss vss gf180mcu_fd_sc_mcu7t5v0__fillcap_4
XFILLER_0_28_107 vdd vdd vss vss gf180mcu_fd_sc_mcu7t5v0__fill_2
XTAP_TAPCELL_ROW_0_60 vdd vss gf180mcu_fd_sc_mcu7t5v0__filltie
XFILLER_0_27_195 vdd vdd vss vss gf180mcu_fd_sc_mcu7t5v0__fillcap_4
XANTENNA_input27_I chany_top_in[14] vdd vdd vss vss gf180mcu_fd_sc_mcu7t5v0__antenna
XTAP_TAPCELL_ROW_9_91 vdd vss gf180mcu_fd_sc_mcu7t5v0__filltie
X_110_ net101 _030_ clknet_2_2__leaf_prog_clk net43 vdd vdd vss vss gf180mcu_fd_sc_mcu7t5v0__dffrnq_1
X_041_ _036_ _037_ vdd vdd vss vss gf180mcu_fd_sc_mcu7t5v0__buf_12
XFILLER_0_21_88 vdd vdd vss vss gf180mcu_fd_sc_mcu7t5v0__fill_2
XFILLER_0_1_76 vdd vdd vss vss gf180mcu_fd_sc_mcu7t5v0__fill_2
XFILLER_0_15_176 vdd vdd vss vss gf180mcu_fd_sc_mcu7t5v0__fill_1
XFILLER_0_15_121 vdd vdd vss vss gf180mcu_fd_sc_mcu7t5v0__fillcap_8
Xhold34 mem_left_ipin_0.DFFR_0_.Q net123 vdd vdd vss vss gf180mcu_fd_sc_mcu7t5v0__dlyb_1
Xhold23 mem_left_ipin_0.DFFR_2_.Q net112 vdd vdd vss vss gf180mcu_fd_sc_mcu7t5v0__dlyb_1
Xhold12 mem_right_ipin_2.DFFR_4_.Q net101 vdd vdd vss vss gf180mcu_fd_sc_mcu7t5v0__dlyb_1
Xcby_1__1__84 left_grid_right_width_0_height_0_subtile_0__pin_I_9_ vdd vdd vss vss
+ gf180mcu_fd_sc_mcu7t5v0__tiel
Xclkbuf_2_3__f_prog_clk clknet_0_prog_clk clknet_2_3__leaf_prog_clk vdd vdd vss vss
+ gf180mcu_fd_sc_mcu7t5v0__clkbuf_16
XFILLER_0_8_107 vdd vdd vss vss gf180mcu_fd_sc_mcu7t5v0__fillcap_4
Xoutput57 net57 chany_bottom_out[3] vdd vdd vss vss gf180mcu_fd_sc_mcu7t5v0__buf_3
XFILLER_0_18_2 vdd vdd vss vss gf180mcu_fd_sc_mcu7t5v0__fillcap_16
Xoutput46 net46 chany_bottom_out[11] vdd vdd vss vss gf180mcu_fd_sc_mcu7t5v0__buf_3
XFILLER_0_12_157 vdd vdd vss vss gf180mcu_fd_sc_mcu7t5v0__fillcap_16
XPHY_EDGE_ROW_28_Right_28 vdd vss gf180mcu_fd_sc_mcu7t5v0__endcap
Xoutput79 net79 chany_top_out[5] vdd vdd vss vss gf180mcu_fd_sc_mcu7t5v0__buf_3
Xoutput68 net68 chany_top_out[13] vdd vdd vss vss gf180mcu_fd_sc_mcu7t5v0__buf_3
XPHY_EDGE_ROW_19_Right_19 vdd vss gf180mcu_fd_sc_mcu7t5v0__endcap
XTAP_TAPCELL_ROW_18_119 vdd vss gf180mcu_fd_sc_mcu7t5v0__filltie
XFILLER_0_27_87 vdd vdd vss vss gf180mcu_fd_sc_mcu7t5v0__fillcap_32
XFILLER_0_27_76 vdd vdd vss vss gf180mcu_fd_sc_mcu7t5v0__fill_1
XFILLER_0_23_208 vdd vdd vss vss gf180mcu_fd_sc_mcu7t5v0__fill_2
XTAP_TAPCELL_ROW_23_133 vdd vss gf180mcu_fd_sc_mcu7t5v0__filltie
XFILLER_0_7_2 vdd vdd vss vss gf180mcu_fd_sc_mcu7t5v0__fill_2
XANTENNA_input1_I ccff_head vdd vdd vss vss gf180mcu_fd_sc_mcu7t5v0__antenna
XTAP_TAPCELL_ROW_20_125 vdd vss gf180mcu_fd_sc_mcu7t5v0__filltie
XFILLER_0_10_211 vdd vdd vss vss gf180mcu_fd_sc_mcu7t5v0__fill_2
XFILLER_0_28_119 vdd vdd vss vss gf180mcu_fd_sc_mcu7t5v0__fill_2
XTAP_TAPCELL_ROW_0_61 vdd vss gf180mcu_fd_sc_mcu7t5v0__filltie
XTAP_TAPCELL_ROW_9_92 vdd vss gf180mcu_fd_sc_mcu7t5v0__filltie
XFILLER_0_18_174 vdd vdd vss vss gf180mcu_fd_sc_mcu7t5v0__fill_1
Xclkbuf_2_2__f_prog_clk clknet_0_prog_clk clknet_2_2__leaf_prog_clk vdd vdd vss vss
+ gf180mcu_fd_sc_mcu7t5v0__clkbuf_16
X_040_ net42 _036_ vdd vdd vss vss gf180mcu_fd_sc_mcu7t5v0__buf_8
XFILLER_0_24_177 vdd vdd vss vss gf180mcu_fd_sc_mcu7t5v0__fillcap_32
XFILLER_0_1_99 vdd vdd vss vss gf180mcu_fd_sc_mcu7t5v0__fillcap_32
XFILLER_0_1_66 vdd vdd vss vss gf180mcu_fd_sc_mcu7t5v0__fill_2
Xhold35 mem_right_ipin_1.DFFR_5_.Q net124 vdd vdd vss vss gf180mcu_fd_sc_mcu7t5v0__dlyb_1
Xhold13 mem_right_ipin_1.DFFR_2_.Q net102 vdd vdd vss vss gf180mcu_fd_sc_mcu7t5v0__dlyb_1
Xhold24 mem_right_ipin_2.DFFR_0_.Q net113 vdd vdd vss vss gf180mcu_fd_sc_mcu7t5v0__dlyb_1
XFILLER_0_29_203 vdd vdd vss vss gf180mcu_fd_sc_mcu7t5v0__fill_1
Xcby_1__1__85 left_grid_right_width_0_height_0_subtile_0__pin_I_5_ vdd vdd vss vss
+ gf180mcu_fd_sc_mcu7t5v0__tiel
XFILLER_0_16_34 vdd vdd vss vss gf180mcu_fd_sc_mcu7t5v0__fill_1
XTAP_TAPCELL_ROW_6_82 vdd vss gf180mcu_fd_sc_mcu7t5v0__filltie
XFILLER_0_7_185 vdd vdd vss vss gf180mcu_fd_sc_mcu7t5v0__fillcap_8
XTAP_TAPCELL_ROW_26_142 vdd vss gf180mcu_fd_sc_mcu7t5v0__filltie
Xoutput58 net58 chany_bottom_out[4] vdd vdd vss vss gf180mcu_fd_sc_mcu7t5v0__buf_3
Xoutput69 net69 chany_top_out[14] vdd vdd vss vss gf180mcu_fd_sc_mcu7t5v0__clkbuf_4
Xoutput47 net47 chany_bottom_out[12] vdd vdd vss vss gf180mcu_fd_sc_mcu7t5v0__buf_3
XFILLER_0_4_177 vdd vdd vss vss gf180mcu_fd_sc_mcu7t5v0__fillcap_8
XTAP_TAPCELL_ROW_23_134 vdd vss gf180mcu_fd_sc_mcu7t5v0__filltie
XFILLER_0_1_158 vdd vdd vss vss gf180mcu_fd_sc_mcu7t5v0__fillcap_8
XTAP_TAPCELL_ROW_20_126 vdd vss gf180mcu_fd_sc_mcu7t5v0__filltie
XFILLER_0_13_220 vdd vdd vss vss gf180mcu_fd_sc_mcu7t5v0__fill_2
XFILLER_0_24_34 vdd vdd vss vss gf180mcu_fd_sc_mcu7t5v0__fill_1
XFILLER_0_4_33 vdd vdd vss vss gf180mcu_fd_sc_mcu7t5v0__fill_2
XFILLER_0_10_223 vdd vdd vss vss gf180mcu_fd_sc_mcu7t5v0__fill_2
Xclkbuf_2_1__f_prog_clk clknet_0_prog_clk clknet_2_1__leaf_prog_clk vdd vdd vss vss
+ gf180mcu_fd_sc_mcu7t5v0__clkbuf_16
XANTENNA__098__CLK clknet_2_2__leaf_prog_clk vdd vdd vss vss gf180mcu_fd_sc_mcu7t5v0__antenna
XFILLER_0_10_25 vdd vdd vss vss gf180mcu_fd_sc_mcu7t5v0__fillcap_8
XFILLER_0_27_142 vdd vdd vss vss gf180mcu_fd_sc_mcu7t5v0__fillcap_16
XTAP_TAPCELL_ROW_0_62 vdd vss gf180mcu_fd_sc_mcu7t5v0__filltie
XTAP_TAPCELL_ROW_9_93 vdd vss gf180mcu_fd_sc_mcu7t5v0__filltie
XFILLER_0_10_47 vdd vdd vss vss gf180mcu_fd_sc_mcu7t5v0__fillcap_16
XPHY_EDGE_ROW_28_Left_58 vdd vss gf180mcu_fd_sc_mcu7t5v0__endcap
XFILLER_0_24_101 vdd vdd vss vss gf180mcu_fd_sc_mcu7t5v0__fillcap_4
X_099_ net104 _019_ clknet_2_3__leaf_prog_clk mem_right_ipin_0.DFFR_4_.Q vdd vdd vss
+ vss gf180mcu_fd_sc_mcu7t5v0__dffrnq_1
Xhold14 mem_left_ipin_2.DFFR_4_.Q net103 vdd vdd vss vss gf180mcu_fd_sc_mcu7t5v0__dlyb_1
Xhold25 mem_right_ipin_1.DFFR_0_.Q net114 vdd vdd vss vss gf180mcu_fd_sc_mcu7t5v0__dlyb_1
XANTENNA_input32_I chany_top_in[19] vdd vdd vss vss gf180mcu_fd_sc_mcu7t5v0__antenna
XFILLER_0_1_89 vdd vdd vss vss gf180mcu_fd_sc_mcu7t5v0__fill_2
XFILLER_0_1_78 vdd vdd vss vss gf180mcu_fd_sc_mcu7t5v0__fill_1
XTAP_TAPCELL_ROW_29_151 vdd vss gf180mcu_fd_sc_mcu7t5v0__filltie
Xcby_1__1__86 left_grid_right_width_0_height_0_subtile_0__pin_I_1_ vdd vdd vss vss
+ gf180mcu_fd_sc_mcu7t5v0__tiel
XTAP_TAPCELL_ROW_6_83 vdd vss gf180mcu_fd_sc_mcu7t5v0__filltie
XFILLER_0_12_115 vdd vdd vss vss gf180mcu_fd_sc_mcu7t5v0__fillcap_4
XFILLER_0_26_207 vdd vdd vss vss gf180mcu_fd_sc_mcu7t5v0__fill_1
XTAP_TAPCELL_ROW_26_143 vdd vss gf180mcu_fd_sc_mcu7t5v0__filltie
XPHY_EDGE_ROW_1_Right_1 vdd vss gf180mcu_fd_sc_mcu7t5v0__endcap
Xoutput59 net59 chany_bottom_out[5] vdd vdd vss vss gf180mcu_fd_sc_mcu7t5v0__buf_3
Xoutput48 net48 chany_bottom_out[13] vdd vdd vss vss gf180mcu_fd_sc_mcu7t5v0__clkbuf_4
XFILLER_0_7_142 vdd vdd vss vss gf180mcu_fd_sc_mcu7t5v0__fillcap_4
XFILLER_0_7_197 vdd vdd vss vss gf180mcu_fd_sc_mcu7t5v0__fill_1
XPHY_EDGE_ROW_15_Left_45 vdd vss gf180mcu_fd_sc_mcu7t5v0__endcap
XFILLER_0_4_101 vdd vdd vss vss gf180mcu_fd_sc_mcu7t5v0__fillcap_4
XTAP_TAPCELL_ROW_23_135 vdd vss gf180mcu_fd_sc_mcu7t5v0__filltie
XFILLER_0_23_2 vdd vdd vss vss gf180mcu_fd_sc_mcu7t5v0__fillcap_4
XFILLER_0_4_189 vdd vdd vss vss gf180mcu_fd_sc_mcu7t5v0__fill_2
XTAP_TAPCELL_ROW_3_73 vdd vss gf180mcu_fd_sc_mcu7t5v0__filltie
XFILLER_0_13_232 vdd vdd vss vss gf180mcu_fd_sc_mcu7t5v0__fillcap_4
XFILLER_0_9_237 vdd vdd vss vss gf180mcu_fd_sc_mcu7t5v0__fillcap_4
Xclkbuf_2_0__f_prog_clk clknet_0_prog_clk clknet_2_0__leaf_prog_clk vdd vdd vss vss
+ gf180mcu_fd_sc_mcu7t5v0__clkbuf_16
XFILLER_0_4_12 vdd vdd vss vss gf180mcu_fd_sc_mcu7t5v0__fill_2
XFILLER_0_19_68 vdd vdd vss vss gf180mcu_fd_sc_mcu7t5v0__fill_2
XTAP_TAPCELL_ROW_0_63 vdd vss gf180mcu_fd_sc_mcu7t5v0__filltie
XFILLER_0_18_121 vdd vdd vss vss gf180mcu_fd_sc_mcu7t5v0__fill_2
X_098_ net94 _018_ clknet_2_2__leaf_prog_clk mem_right_ipin_0.DFFR_5_.Q vdd vdd vss
+ vss gf180mcu_fd_sc_mcu7t5v0__dffrnq_1
XPHY_EDGE_ROW_3_Left_33 vdd vss gf180mcu_fd_sc_mcu7t5v0__endcap
XFILLER_0_21_138 vdd vdd vss vss gf180mcu_fd_sc_mcu7t5v0__fill_2
Xhold15 mem_right_ipin_0.DFFR_3_.Q net104 vdd vdd vss vss gf180mcu_fd_sc_mcu7t5v0__dlyb_1
XANTENNA_input25_I chany_top_in[12] vdd vdd vss vss gf180mcu_fd_sc_mcu7t5v0__antenna
XTAP_TAPCELL_ROW_10_94 vdd vss gf180mcu_fd_sc_mcu7t5v0__filltie
Xhold26 mem_right_ipin_2.DFFR_2_.Q net115 vdd vdd vss vss gf180mcu_fd_sc_mcu7t5v0__dlyb_1
XFILLER_0_29_216 vdd vdd vss vss gf180mcu_fd_sc_mcu7t5v0__fillcap_8
XTAP_TAPCELL_ROW_29_152 vdd vss gf180mcu_fd_sc_mcu7t5v0__filltie
Xcby_1__1__87 right_grid_left_width_0_height_0_subtile_0__pin_I_11_ vdd vdd vss vss
+ gf180mcu_fd_sc_mcu7t5v0__tiel
XFILLER_0_20_193 vdd vdd vss vss gf180mcu_fd_sc_mcu7t5v0__fill_2
XFILLER_0_16_58 vdd vdd vss vss gf180mcu_fd_sc_mcu7t5v0__fillcap_16
XTAP_TAPCELL_ROW_6_84 vdd vss gf180mcu_fd_sc_mcu7t5v0__filltie
Xoutput49 net49 chany_bottom_out[14] vdd vdd vss vss gf180mcu_fd_sc_mcu7t5v0__clkbuf_4
XTAP_TAPCELL_ROW_26_144 vdd vss gf180mcu_fd_sc_mcu7t5v0__filltie
XFILLER_0_9_8 vdd vdd vss vss gf180mcu_fd_sc_mcu7t5v0__fill_1
XPHY_EDGE_ROW_24_Right_24 vdd vss gf180mcu_fd_sc_mcu7t5v0__endcap
XFILLER_0_16_2 vdd vdd vss vss gf180mcu_fd_sc_mcu7t5v0__fillcap_8
XPHY_EDGE_ROW_15_Right_15 vdd vss gf180mcu_fd_sc_mcu7t5v0__endcap
XFILLER_0_3_190 vdd vdd vss vss gf180mcu_fd_sc_mcu7t5v0__fillcap_8
XTAP_TAPCELL_ROW_3_74 vdd vss gf180mcu_fd_sc_mcu7t5v0__filltie
XFILLER_0_9_216 vdd vdd vss vss gf180mcu_fd_sc_mcu7t5v0__fill_2
XTAP_TAPCELL_ROW_0_64 vdd vss gf180mcu_fd_sc_mcu7t5v0__filltie
XFILLER_0_27_199 vdd vdd vss vss gf180mcu_fd_sc_mcu7t5v0__fill_2
XFILLER_0_27_166 vdd vdd vss vss gf180mcu_fd_sc_mcu7t5v0__fillcap_4
X_097_ net100 _017_ clknet_2_1__leaf_prog_clk mem_left_ipin_2.DFFR_0_.Q vdd vdd vss
+ vss gf180mcu_fd_sc_mcu7t5v0__dffrnq_1
XFILLER_0_15_158 vdd vdd vss vss gf180mcu_fd_sc_mcu7t5v0__fillcap_16
Xhold16 mem_left_ipin_2.DFFR_0_.Q net105 vdd vdd vss vss gf180mcu_fd_sc_mcu7t5v0__dlyb_1
Xhold27 mem_right_ipin_0.DFFR_2_.Q net116 vdd vdd vss vss gf180mcu_fd_sc_mcu7t5v0__dlyb_1
XANTENNA_input18_I chany_bottom_in[6] vdd vdd vss vss gf180mcu_fd_sc_mcu7t5v0__antenna
XTAP_TAPCELL_ROW_10_95 vdd vss gf180mcu_fd_sc_mcu7t5v0__filltie
XTAP_TAPCELL_ROW_29_153 vdd vss gf180mcu_fd_sc_mcu7t5v0__filltie
Xcby_1__1__88 right_grid_left_width_0_height_0_subtile_0__pin_I_3_ vdd vdd vss vss
+ gf180mcu_fd_sc_mcu7t5v0__tiel
X_149_ net5 net67 vdd vdd vss vss gf180mcu_fd_sc_mcu7t5v0__clkbuf_1
XFILLER_0_16_37 vdd vdd vss vss gf180mcu_fd_sc_mcu7t5v0__fillcap_4
XFILLER_0_16_26 vdd vdd vss vss gf180mcu_fd_sc_mcu7t5v0__fillcap_8
XFILLER_0_11_150 vdd vdd vss vss gf180mcu_fd_sc_mcu7t5v0__fillcap_4
XFILLER_0_27_69 vdd vdd vss vss gf180mcu_fd_sc_mcu7t5v0__fill_1
XFILLER_0_1_139 vdd vdd vss vss gf180mcu_fd_sc_mcu7t5v0__fill_1
XTAP_TAPCELL_ROW_3_75 vdd vss gf180mcu_fd_sc_mcu7t5v0__filltie
XFILLER_0_13_212 vdd vdd vss vss gf180mcu_fd_sc_mcu7t5v0__fillcap_4
XFILLER_0_0_172 vdd vdd vss vss gf180mcu_fd_sc_mcu7t5v0__fill_2
XFILLER_0_24_37 vdd vdd vss vss gf180mcu_fd_sc_mcu7t5v0__fillcap_64
XFILLER_0_10_215 vdd vdd vss vss gf180mcu_fd_sc_mcu7t5v0__fillcap_8
XFILLER_0_14_70 vdd vdd vss vss gf180mcu_fd_sc_mcu7t5v0__fill_1
XFILLER_0_4_14 vdd vdd vss vss gf180mcu_fd_sc_mcu7t5v0__fill_1
XFILLER_0_19_26 vdd vdd vss vss gf180mcu_fd_sc_mcu7t5v0__fillcap_4
XTAP_TAPCELL_ROW_0_65 vdd vss gf180mcu_fd_sc_mcu7t5v0__filltie
XFILLER_0_2_201 vdd vdd vss vss gf180mcu_fd_sc_mcu7t5v0__fill_2
XFILLER_0_25_80 vdd vdd vss vss gf180mcu_fd_sc_mcu7t5v0__fill_1
XFILLER_0_18_123 vdd vdd vss vss gf180mcu_fd_sc_mcu7t5v0__fill_1
X_096_ net105 _016_ clknet_2_1__leaf_prog_clk mem_left_ipin_2.DFFR_1_.Q vdd vdd vss
+ vss gf180mcu_fd_sc_mcu7t5v0__dffrnq_1
XFILLER_0_23_192 vdd vdd vss vss gf180mcu_fd_sc_mcu7t5v0__fillcap_16
Xhold17 mem_left_ipin_2.DFFR_1_.Q net106 vdd vdd vss vss gf180mcu_fd_sc_mcu7t5v0__dlyb_1
Xhold28 mem_left_ipin_0.DFFR_1_.Q net117 vdd vdd vss vss gf180mcu_fd_sc_mcu7t5v0__dlyb_1
XTAP_TAPCELL_ROW_10_96 vdd vss gf180mcu_fd_sc_mcu7t5v0__filltie
XTAP_TAPCELL_ROW_29_154 vdd vss gf180mcu_fd_sc_mcu7t5v0__filltie
X_148_ net6 net68 vdd vdd vss vss gf180mcu_fd_sc_mcu7t5v0__clkbuf_1
Xcby_1__1__89 right_grid_left_width_0_height_0_subtile_0__pin_I_7_ vdd vdd vss vss
+ gf180mcu_fd_sc_mcu7t5v0__tiel
XFILLER_0_14_170 vdd vdd vss vss gf180mcu_fd_sc_mcu7t5v0__fill_2
XFILLER_0_12_107 vdd vdd vss vss gf180mcu_fd_sc_mcu7t5v0__fillcap_8
XFILLER_0_25_8 vdd vdd vss vss gf180mcu_fd_sc_mcu7t5v0__fill_2
XFILLER_0_20_173 vdd vdd vss vss gf180mcu_fd_sc_mcu7t5v0__fill_2
X_079_ _036_ _035_ vdd vdd vss vss gf180mcu_fd_sc_mcu7t5v0__clkinv_2
XANTENNA_input30_I chany_top_in[17] vdd vdd vss vss gf180mcu_fd_sc_mcu7t5v0__antenna
XFILLER_0_27_37 vdd vdd vss vss gf180mcu_fd_sc_mcu7t5v0__fillcap_32
XPHY_EDGE_ROW_5_Right_5 vdd vss gf180mcu_fd_sc_mcu7t5v0__endcap
XPHY_EDGE_ROW_19_Left_49 vdd vss gf180mcu_fd_sc_mcu7t5v0__endcap
XFILLER_0_28_80 vdd vdd vss vss gf180mcu_fd_sc_mcu7t5v0__fill_1
XFILLER_0_21_2 vdd vdd vss vss gf180mcu_fd_sc_mcu7t5v0__fill_2
XFILLER_0_13_224 vdd vdd vss vss gf180mcu_fd_sc_mcu7t5v0__fillcap_8
XFILLER_0_0_162 vdd vdd vss vss gf180mcu_fd_sc_mcu7t5v0__fill_2
XFILLER_0_24_16 vdd vdd vss vss gf180mcu_fd_sc_mcu7t5v0__fillcap_16
XFILLER_0_4_37 vdd vdd vss vss gf180mcu_fd_sc_mcu7t5v0__fillcap_64
XFILLER_0_5_232 vdd vdd vss vss gf180mcu_fd_sc_mcu7t5v0__fill_2
XFILLER_0_27_179 vdd vdd vss vss gf180mcu_fd_sc_mcu7t5v0__fillcap_16
XFILLER_0_27_135 vdd vdd vss vss gf180mcu_fd_sc_mcu7t5v0__fillcap_4
XTAP_TAPCELL_ROW_0_66 vdd vss gf180mcu_fd_sc_mcu7t5v0__filltie
XFILLER_0_2_224 vdd vdd vss vss gf180mcu_fd_sc_mcu7t5v0__fill_2
XANTENNA__106__CLK clknet_2_2__leaf_prog_clk vdd vdd vss vss gf180mcu_fd_sc_mcu7t5v0__antenna
X_095_ net106 _015_ clknet_2_1__leaf_prog_clk mem_left_ipin_2.DFFR_2_.Q vdd vdd vss
+ vss gf180mcu_fd_sc_mcu7t5v0__dffrnq_1
Xhold18 mem_left_ipin_1.DFFR_3_.Q net107 vdd vdd vss vss gf180mcu_fd_sc_mcu7t5v0__dlyb_1
Xhold29 mem_right_ipin_1.DFFR_3_.Q net118 vdd vdd vss vss gf180mcu_fd_sc_mcu7t5v0__dlyb_1
XTAP_TAPCELL_ROW_29_155 vdd vss gf180mcu_fd_sc_mcu7t5v0__filltie
XPHY_EDGE_ROW_7_Left_37 vdd vss gf180mcu_fd_sc_mcu7t5v0__endcap
X_147_ net7 net69 vdd vdd vss vss gf180mcu_fd_sc_mcu7t5v0__clkbuf_1
XFILLER_0_7_146 vdd vdd vss vss gf180mcu_fd_sc_mcu7t5v0__fill_1
X_078_ _036_ _034_ vdd vdd vss vss gf180mcu_fd_sc_mcu7t5v0__clkinv_2
XANTENNA_input23_I chany_top_in[10] vdd vdd vss vss gf180mcu_fd_sc_mcu7t5v0__antenna
XFILLER_0_2_81 vdd vdd vss vss gf180mcu_fd_sc_mcu7t5v0__fillcap_16
XFILLER_0_27_16 vdd vdd vss vss gf180mcu_fd_sc_mcu7t5v0__fill_2
XFILLER_0_16_211 vdd vdd vss vss gf180mcu_fd_sc_mcu7t5v0__fill_2
XFILLER_0_22_225 vdd vdd vss vss gf180mcu_fd_sc_mcu7t5v0__fill_2
XPHY_EDGE_ROW_20_Right_20 vdd vss gf180mcu_fd_sc_mcu7t5v0__endcap
XTAP_TAPCELL_ROW_14_106 vdd vss gf180mcu_fd_sc_mcu7t5v0__filltie
XPHY_EDGE_ROW_11_Right_11 vdd vss gf180mcu_fd_sc_mcu7t5v0__endcap
XFILLER_0_14_2 vdd vdd vss vss gf180mcu_fd_sc_mcu7t5v0__fillcap_16
XFILLER_0_13_236 vdd vdd vss vss gf180mcu_fd_sc_mcu7t5v0__fill_2
XANTENNA__064__I _039_ vdd vdd vss vss gf180mcu_fd_sc_mcu7t5v0__antenna
XFILLER_0_0_185 vdd vdd vss vss gf180mcu_fd_sc_mcu7t5v0__fillcap_4
XFILLER_0_0_174 vdd vdd vss vss gf180mcu_fd_sc_mcu7t5v0__fill_1
XFILLER_0_0_130 vdd vdd vss vss gf180mcu_fd_sc_mcu7t5v0__fillcap_4
XFILLER_0_27_158 vdd vdd vss vss gf180mcu_fd_sc_mcu7t5v0__fillcap_8
XFILLER_0_2_203 vdd vdd vss vss gf180mcu_fd_sc_mcu7t5v0__fill_1
XFILLER_0_25_93 vdd vdd vss vss gf180mcu_fd_sc_mcu7t5v0__fillcap_32
XFILLER_0_25_60 vdd vdd vss vss gf180mcu_fd_sc_mcu7t5v0__fillcap_8
XFILLER_0_18_158 vdd vdd vss vss gf180mcu_fd_sc_mcu7t5v0__fillcap_4
XFILLER_0_18_103 vdd vdd vss vss gf180mcu_fd_sc_mcu7t5v0__fill_2
X_094_ net90 _014_ clknet_2_3__leaf_prog_clk mem_left_ipin_2.DFFR_3_.Q vdd vdd vss
+ vss gf180mcu_fd_sc_mcu7t5v0__dffrnq_1
XPHY_EDGE_ROW_23_Left_53 vdd vss gf180mcu_fd_sc_mcu7t5v0__endcap
Xhold19 mem_left_ipin_0.DFFR_3_.Q net108 vdd vdd vss vss gf180mcu_fd_sc_mcu7t5v0__dlyb_1
XANTENNA__072__I _039_ vdd vdd vss vss gf180mcu_fd_sc_mcu7t5v0__antenna
XTAP_TAPCELL_ROW_29_156 vdd vss gf180mcu_fd_sc_mcu7t5v0__filltie
XFILLER_0_14_172 vdd vdd vss vss gf180mcu_fd_sc_mcu7t5v0__fill_1
X_146_ net8 net70 vdd vdd vss vss gf180mcu_fd_sc_mcu7t5v0__clkbuf_1
XANTENNA__067__I _039_ vdd vdd vss vss gf180mcu_fd_sc_mcu7t5v0__antenna
X_077_ _036_ _033_ vdd vdd vss vss gf180mcu_fd_sc_mcu7t5v0__clkinv_2
XANTENNA_input16_I chany_bottom_in[4] vdd vdd vss vss gf180mcu_fd_sc_mcu7t5v0__antenna
XFILLER_0_19_220 vdd vdd vss vss gf180mcu_fd_sc_mcu7t5v0__fill_1
XFILLER_0_11_142 vdd vdd vss vss gf180mcu_fd_sc_mcu7t5v0__fillcap_8
XFILLER_0_25_212 vdd vdd vss vss gf180mcu_fd_sc_mcu7t5v0__fill_2
XTAP_TAPCELL_ROW_17_115 vdd vss gf180mcu_fd_sc_mcu7t5v0__filltie
XFILLER_0_6_191 vdd vdd vss vss gf180mcu_fd_sc_mcu7t5v0__fill_1