* NGSPICE file created from grid_clb.ext - technology: gf180mcuD

* Black-box entry subcircuit for gf180mcu_fd_sc_mcu7t5v0__fillcap_64 abstract view
.subckt gf180mcu_fd_sc_mcu7t5v0__fillcap_64 VDD VNW VPW VSS
.ends

* Black-box entry subcircuit for gf180mcu_fd_sc_mcu7t5v0__fillcap_8 abstract view
.subckt gf180mcu_fd_sc_mcu7t5v0__fillcap_8 VDD VNW VPW VSS
.ends

* Black-box entry subcircuit for gf180mcu_fd_sc_mcu7t5v0__fillcap_16 abstract view
.subckt gf180mcu_fd_sc_mcu7t5v0__fillcap_16 VDD VNW VPW VSS
.ends

* Black-box entry subcircuit for gf180mcu_fd_sc_mcu7t5v0__filltie abstract view
.subckt gf180mcu_fd_sc_mcu7t5v0__filltie VDD VSS
.ends

* Black-box entry subcircuit for gf180mcu_fd_sc_mcu7t5v0__fill_2 abstract view
.subckt gf180mcu_fd_sc_mcu7t5v0__fill_2 VDD VNW VPW VSS
.ends

* Black-box entry subcircuit for gf180mcu_fd_sc_mcu7t5v0__fillcap_4 abstract view
.subckt gf180mcu_fd_sc_mcu7t5v0__fillcap_4 VDD VNW VPW VSS
.ends

* Black-box entry subcircuit for gf180mcu_fd_sc_mcu7t5v0__endcap abstract view
.subckt gf180mcu_fd_sc_mcu7t5v0__endcap VDD VSS
.ends

* Black-box entry subcircuit for gf180mcu_fd_sc_mcu7t5v0__antenna abstract view
.subckt gf180mcu_fd_sc_mcu7t5v0__antenna I VDD VNW VPW VSS
.ends

* Black-box entry subcircuit for gf180mcu_fd_sc_mcu7t5v0__clkinv_2 abstract view
.subckt gf180mcu_fd_sc_mcu7t5v0__clkinv_2 I ZN VDD VNW VPW VSS
.ends

* Black-box entry subcircuit for gf180mcu_fd_sc_mcu7t5v0__fillcap_32 abstract view
.subckt gf180mcu_fd_sc_mcu7t5v0__fillcap_32 VDD VNW VPW VSS
.ends

* Black-box entry subcircuit for gf180mcu_fd_sc_mcu7t5v0__fill_1 abstract view
.subckt gf180mcu_fd_sc_mcu7t5v0__fill_1 VDD VNW VPW VSS
.ends

* Black-box entry subcircuit for gf180mcu_fd_sc_mcu7t5v0__dlyb_1 abstract view
.subckt gf180mcu_fd_sc_mcu7t5v0__dlyb_1 I Z VDD VNW VPW VSS
.ends

* Black-box entry subcircuit for gf180mcu_fd_sc_mcu7t5v0__dffrnq_1 abstract view
.subckt gf180mcu_fd_sc_mcu7t5v0__dffrnq_1 D RN CLK Q VDD VNW VPW VSS
.ends

* Black-box entry subcircuit for gf180mcu_fd_sc_mcu7t5v0__clkbuf_16 abstract view
.subckt gf180mcu_fd_sc_mcu7t5v0__clkbuf_16 I Z VDD VNW VPW VSS
.ends

* Black-box entry subcircuit for gf180mcu_fd_sc_mcu7t5v0__buf_8 abstract view
.subckt gf180mcu_fd_sc_mcu7t5v0__buf_8 I Z VDD VNW VPW VSS
.ends

* Black-box entry subcircuit for gf180mcu_fd_sc_mcu7t5v0__buf_4 abstract view
.subckt gf180mcu_fd_sc_mcu7t5v0__buf_4 I Z VDD VNW VPW VSS
.ends

* Black-box entry subcircuit for gf180mcu_fd_sc_mcu7t5v0__tiel abstract view
.subckt gf180mcu_fd_sc_mcu7t5v0__tiel ZN VDD VNW VPW VSS
.ends

* Black-box entry subcircuit for gf180mcu_fd_sc_mcu7t5v0__clkbuf_1 abstract view
.subckt gf180mcu_fd_sc_mcu7t5v0__clkbuf_1 I Z VDD VNW VPW VSS
.ends

* Black-box entry subcircuit for gf180mcu_fd_sc_mcu7t5v0__clkinv_3 abstract view
.subckt gf180mcu_fd_sc_mcu7t5v0__clkinv_3 I ZN VDD VNW VPW VSS
.ends

* Black-box entry subcircuit for gf180mcu_fd_sc_mcu7t5v0__clkbuf_3 abstract view
.subckt gf180mcu_fd_sc_mcu7t5v0__clkbuf_3 I Z VDD VNW VPW VSS
.ends

.subckt grid_clb bottom_width_0_height_0_subtile_0__pin_I_10_ bottom_width_0_height_0_subtile_0__pin_I_2_
+ bottom_width_0_height_0_subtile_0__pin_I_6_ bottom_width_0_height_0_subtile_0__pin_O_2_
+ bottom_width_0_height_0_subtile_0__pin_O_6_ ccff_head ccff_tail clk left_width_0_height_0_subtile_0__pin_I_11_
+ left_width_0_height_0_subtile_0__pin_I_3_ left_width_0_height_0_subtile_0__pin_I_7_
+ pReset prog_clk reset right_width_0_height_0_subtile_0__pin_I_1_ right_width_0_height_0_subtile_0__pin_I_5_
+ right_width_0_height_0_subtile_0__pin_I_9_ right_width_0_height_0_subtile_0__pin_O_5_
+ set top_width_0_height_0_subtile_0__pin_I_0_ top_width_0_height_0_subtile_0__pin_I_4_
+ top_width_0_height_0_subtile_0__pin_I_8_ top_width_0_height_0_subtile_0__pin_clk_0_
+ vdd vss right_width_0_height_0_subtile_0__pin_O_1_ left_width_0_height_0_subtile_0__pin_O_3_
+ left_width_0_height_0_subtile_0__pin_O_7_ top_width_0_height_0_subtile_0__pin_O_4_
+ top_width_0_height_0_subtile_0__pin_O_0_
XFILLER_0_76_177 vdd vdd vss vss gf180mcu_fd_sc_mcu7t5v0__fillcap_64
XFILLER_0_64_317 vdd vdd vss vss gf180mcu_fd_sc_mcu7t5v0__fillcap_8
XFILLER_0_45_542 vdd vdd vss vss gf180mcu_fd_sc_mcu7t5v0__fillcap_16
XTAP_TAPCELL_ROW_37_467 vdd vss gf180mcu_fd_sc_mcu7t5v0__filltie
XFILLER_0_9_422 vdd vdd vss vss gf180mcu_fd_sc_mcu7t5v0__fillcap_64
XFILLER_0_32_247 vdd vdd vss vss gf180mcu_fd_sc_mcu7t5v0__fill_2
XFILLER_0_4_171 vdd vdd vss vss gf180mcu_fd_sc_mcu7t5v0__fillcap_4
XPHY_EDGE_ROW_15_Left_93 vdd vss gf180mcu_fd_sc_mcu7t5v0__endcap
XANTENNA__610__CLK clknet_leaf_16_prog_clk vdd vdd vss vss gf180mcu_fd_sc_mcu7t5v0__antenna
XTAP_TAPCELL_ROW_71_735 vdd vss gf180mcu_fd_sc_mcu7t5v0__filltie
X_432_ _284_ _166_ vdd vdd vss vss gf180mcu_fd_sc_mcu7t5v0__clkinv_2
X_501_ _290_ _229_ vdd vdd vss vss gf180mcu_fd_sc_mcu7t5v0__clkinv_2
X_363_ _277_ _104_ vdd vdd vss vss gf180mcu_fd_sc_mcu7t5v0__clkinv_2
XFILLER_0_48_380 vdd vdd vss vss gf180mcu_fd_sc_mcu7t5v0__fillcap_4
X_294_ _270_ _042_ vdd vdd vss vss gf180mcu_fd_sc_mcu7t5v0__clkinv_2
XFILLER_0_23_225 vdd vdd vss vss gf180mcu_fd_sc_mcu7t5v0__fill_2
XFILLER_0_51_578 vdd vdd vss vss gf180mcu_fd_sc_mcu7t5v0__fill_2
XFILLER_0_48_37 vdd vdd vss vss gf180mcu_fd_sc_mcu7t5v0__fillcap_32
XFILLER_0_73_136 vdd vdd vss vss gf180mcu_fd_sc_mcu7t5v0__fillcap_4
XFILLER_0_58_177 vdd vdd vss vss gf180mcu_fd_sc_mcu7t5v0__fill_1
XFILLER_0_58_166 vdd vdd vss vss gf180mcu_fd_sc_mcu7t5v0__fillcap_8
XFILLER_0_46_317 vdd vdd vss vss gf180mcu_fd_sc_mcu7t5v0__fillcap_4
XTAP_TAPCELL_ROW_34_437 vdd vss gf180mcu_fd_sc_mcu7t5v0__filltie
XFILLER_0_27_542 vdd vdd vss vss gf180mcu_fd_sc_mcu7t5v0__fillcap_16
XFILLER_0_14_236 vdd vdd vss vss gf180mcu_fd_sc_mcu7t5v0__fillcap_8
XFILLER_0_14_247 vdd vdd vss vss gf180mcu_fd_sc_mcu7t5v0__fillcap_8
XFILLER_0_49_166 vdd vdd vss vss gf180mcu_fd_sc_mcu7t5v0__fill_1
XFILLER_0_49_122 vdd vdd vss vss gf180mcu_fd_sc_mcu7t5v0__fill_2
XANTENNA__783__CLK clknet_leaf_0_prog_clk vdd vdd vss vss gf180mcu_fd_sc_mcu7t5v0__antenna
XFILLER_0_77_497 vdd vdd vss vss gf180mcu_fd_sc_mcu7t5v0__fillcap_8
XFILLER_0_77_486 vdd vdd vss vss gf180mcu_fd_sc_mcu7t5v0__fillcap_4
XFILLER_0_18_575 vdd vdd vss vss gf180mcu_fd_sc_mcu7t5v0__fillcap_4
Xhold181 logical_tile_clb_mode_clb__0.mem_fle_1_in_0.DFFR_3_.Q net192 vdd vdd vss
+ vss gf180mcu_fd_sc_mcu7t5v0__dlyb_1
Xhold170 logical_tile_clb_mode_clb__0.mem_fle_0_in_2.DFFR_6_.Q net181 vdd vdd vss
+ vss gf180mcu_fd_sc_mcu7t5v0__dlyb_1
XFILLER_0_33_578 vdd vdd vss vss gf180mcu_fd_sc_mcu7t5v0__fill_2
XPHY_EDGE_ROW_0_Left_78 vdd vss gf180mcu_fd_sc_mcu7t5v0__endcap
Xhold192 logical_tile_clb_mode_clb__0.mem_fle_3_in_2.DFFR_4_.Q net203 vdd vdd vss
+ vss gf180mcu_fd_sc_mcu7t5v0__dlyb_1
XFILLER_0_55_136 vdd vdd vss vss gf180mcu_fd_sc_mcu7t5v0__fillcap_4
X_346_ _275_ _089_ vdd vdd vss vss gf180mcu_fd_sc_mcu7t5v0__clkinv_2
X_415_ _282_ _151_ vdd vdd vss vss gf180mcu_fd_sc_mcu7t5v0__clkinv_2
XTAP_TAPCELL_ROW_31_418 vdd vss gf180mcu_fd_sc_mcu7t5v0__filltie
XFILLER_0_28_317 vdd vdd vss vss gf180mcu_fd_sc_mcu7t5v0__fillcap_8
XANTENNA__656__CLK clknet_leaf_10_prog_clk vdd vdd vss vss gf180mcu_fd_sc_mcu7t5v0__antenna
XANTENNA_clkbuf_leaf_1_prog_clk_I clknet_1_0__leaf_prog_clk vdd vdd vss vss gf180mcu_fd_sc_mcu7t5v0__antenna
XFILLER_0_11_206 vdd vdd vss vss gf180mcu_fd_sc_mcu7t5v0__fillcap_4
XFILLER_0_64_2 vdd vdd vss vss gf180mcu_fd_sc_mcu7t5v0__fillcap_32
XFILLER_0_15_556 vdd vdd vss vss gf180mcu_fd_sc_mcu7t5v0__fillcap_4
XFILLER_0_15_578 vdd vdd vss vss gf180mcu_fd_sc_mcu7t5v0__fill_2
XFILLER_0_69_206 vdd vdd vss vss gf180mcu_fd_sc_mcu7t5v0__fillcap_4
XPHY_EDGE_ROW_27_Left_105 vdd vss gf180mcu_fd_sc_mcu7t5v0__endcap
XTAP_TAPCELL_ROW_2_187 vdd vss gf180mcu_fd_sc_mcu7t5v0__filltie
XFILLER_0_52_139 vdd vdd vss vss gf180mcu_fd_sc_mcu7t5v0__fill_2
XPHY_EDGE_ROW_36_Left_114 vdd vss gf180mcu_fd_sc_mcu7t5v0__endcap
XFILLER_0_33_364 vdd vdd vss vss gf180mcu_fd_sc_mcu7t5v0__fill_1
XFILLER_0_18_361 vdd vdd vss vss gf180mcu_fd_sc_mcu7t5v0__fillcap_16
XPHY_EDGE_ROW_45_Left_123 vdd vss gf180mcu_fd_sc_mcu7t5v0__endcap
XTAP_TAPCELL_ROW_44_521 vdd vss gf180mcu_fd_sc_mcu7t5v0__filltie
XPHY_EDGE_ROW_54_Left_132 vdd vss gf180mcu_fd_sc_mcu7t5v0__endcap
X_329_ _274_ _073_ vdd vdd vss vss gf180mcu_fd_sc_mcu7t5v0__clkinv_2
XANTENNA__352__I _276_ vdd vdd vss vss gf180mcu_fd_sc_mcu7t5v0__antenna
XFILLER_0_51_172 vdd vdd vss vss gf180mcu_fd_sc_mcu7t5v0__fill_1
XFILLER_0_12_559 vdd vdd vss vss gf180mcu_fd_sc_mcu7t5v0__fillcap_16
XPHY_EDGE_ROW_63_Left_141 vdd vss gf180mcu_fd_sc_mcu7t5v0__endcap
XFILLER_0_19_61 vdd vdd vss vss gf180mcu_fd_sc_mcu7t5v0__fillcap_8
XFILLER_0_19_72 vdd vdd vss vss gf180mcu_fd_sc_mcu7t5v0__fill_2
XPHY_EDGE_ROW_72_Left_150 vdd vss gf180mcu_fd_sc_mcu7t5v0__endcap
XANTENNA__821__CLK clknet_leaf_19_prog_clk vdd vdd vss vss gf180mcu_fd_sc_mcu7t5v0__antenna
XFILLER_0_62_437 vdd vdd vss vss gf180mcu_fd_sc_mcu7t5v0__fillcap_16
XTAP_TAPCELL_ROW_50_568 vdd vss gf180mcu_fd_sc_mcu7t5v0__filltie
XFILLER_0_30_312 vdd vdd vss vss gf180mcu_fd_sc_mcu7t5v0__fill_2
XTAP_TAPCELL_ROW_7_224 vdd vss gf180mcu_fd_sc_mcu7t5v0__filltie
X_680_ net36 _092_ clknet_leaf_9_prog_clk logical_tile_clb_mode_clb__0.mem_fle_1_in_2.DFFR_2_.Q
+ vdd vdd vss vss gf180mcu_fd_sc_mcu7t5v0__dffrnq_1
XTAP_TAPCELL_ROW_58_635 vdd vss gf180mcu_fd_sc_mcu7t5v0__filltie
XFILLER_0_57_209 vdd vdd vss vss gf180mcu_fd_sc_mcu7t5v0__fill_1
XFILLER_0_61_492 vdd vdd vss vss gf180mcu_fd_sc_mcu7t5v0__fillcap_64
Xclkbuf_leaf_8_prog_clk clknet_1_1__leaf_prog_clk clknet_leaf_8_prog_clk vdd vdd vss
+ vss gf180mcu_fd_sc_mcu7t5v0__clkbuf_16
XFILLER_0_33_150 vdd vdd vss vss gf180mcu_fd_sc_mcu7t5v0__fill_1
XFILLER_0_0_206 vdd vdd vss vss gf180mcu_fd_sc_mcu7t5v0__fillcap_32
XFILLER_0_56_37 vdd vdd vss vss gf180mcu_fd_sc_mcu7t5v0__fillcap_64
XPHY_EDGE_ROW_3_Left_81 vdd vss gf180mcu_fd_sc_mcu7t5v0__endcap
XANTENNA__347__I _272_ vdd vdd vss vss gf180mcu_fd_sc_mcu7t5v0__antenna
XFILLER_0_8_317 vdd vdd vss vss gf180mcu_fd_sc_mcu7t5v0__fillcap_64
XANTENNA__844__CLK clknet_leaf_21_prog_clk vdd vdd vss vss gf180mcu_fd_sc_mcu7t5v0__antenna
XFILLER_0_29_456 vdd vdd vss vss gf180mcu_fd_sc_mcu7t5v0__fill_2
XFILLER_0_71_212 vdd vdd vss vss gf180mcu_fd_sc_mcu7t5v0__fillcap_64
XFILLER_0_29_489 vdd vdd vss vss gf180mcu_fd_sc_mcu7t5v0__fill_1
XTAP_TAPCELL_ROW_55_605 vdd vss gf180mcu_fd_sc_mcu7t5v0__filltie
XFILLER_0_75_562 vdd vdd vss vss gf180mcu_fd_sc_mcu7t5v0__fillcap_16
XTAP_TAPCELL_ROW_63_671 vdd vss gf180mcu_fd_sc_mcu7t5v0__filltie
XFILLER_0_47_286 vdd vdd vss vss gf180mcu_fd_sc_mcu7t5v0__fill_1
XFILLER_0_1_72 vdd vdd vss vss gf180mcu_fd_sc_mcu7t5v0__fillcap_64
XFILLER_0_43_492 vdd vdd vss vss gf180mcu_fd_sc_mcu7t5v0__fill_2
Xhold41 logical_tile_clb_mode_clb__0.mem_fle_1_in_3.DFFR_7_.Q net52 vdd vdd vss vss
+ gf180mcu_fd_sc_mcu7t5v0__dlyb_1
X_732_ net204 _144_ clknet_leaf_11_prog_clk logical_tile_clb_mode_clb__0.mem_fle_0_in_1.DFFR_4_.Q
+ vdd vdd vss vss gf180mcu_fd_sc_mcu7t5v0__dffrnq_1
Xhold52 logical_tile_clb_mode_clb__0.mem_fle_2_in_1.DFFR_4_.Q net63 vdd vdd vss vss
+ gf180mcu_fd_sc_mcu7t5v0__dlyb_1
Xhold74 logical_tile_clb_mode_clb__0.mem_fle_3_in_3.DFFR_5_.Q net85 vdd vdd vss vss
+ gf180mcu_fd_sc_mcu7t5v0__dlyb_1
Xhold63 logical_tile_clb_mode_clb__0.logical_tile_clb_mode_default__fle_0.logical_tile_clb_mode_default__fle_mode_physical__fabric_0.logical_tile_clb_mode_default__fle_mode_physical__fabric_mode_default__frac_logic_0.logical_tile_clb_mode_default__fle_mode_physical__fabric_mode_default__frac_logic_mode_default__frac_lut4_0.frac_lut4_0_.frac_lut4_mux_0_.INVTX1_11_.in
+ net74 vdd vdd vss vss gf180mcu_fd_sc_mcu7t5v0__dlyb_1
Xhold30 logical_tile_clb_mode_clb__0.logical_tile_clb_mode_default__fle_1.logical_tile_clb_mode_default__fle_mode_physical__fabric_0.logical_tile_clb_mode_default__fle_mode_physical__fabric_mode_default__frac_logic_0.logical_tile_clb_mode_default__fle_mode_physical__fabric_mode_default__frac_logic_mode_default__frac_lut4_0.frac_lut4_0_.frac_lut4_mux_0_.INVTX1_5_.in
+ net41 vdd vdd vss vss gf180mcu_fd_sc_mcu7t5v0__dlyb_1
X_801_ net20 _213_ clknet_leaf_17_prog_clk logical_tile_clb_mode_clb__0.logical_tile_clb_mode_default__fle_1.logical_tile_clb_mode_default__fle_mode_physical__fabric_0.logical_tile_clb_mode_default__fle_mode_physical__fabric_mode_default__frac_logic_0.mem_frac_logic_out_0.DFFR_1_.Q
+ vdd vdd vss vss gf180mcu_fd_sc_mcu7t5v0__dffrnq_1
Xhold85 logical_tile_clb_mode_clb__0.mem_fle_1_in_2.DFFR_0_.Q net96 vdd vdd vss vss
+ gf180mcu_fd_sc_mcu7t5v0__dlyb_1
XFILLER_0_58_507 vdd vdd vss vss gf180mcu_fd_sc_mcu7t5v0__fillcap_16
Xhold96 logical_tile_clb_mode_clb__0.mem_fle_2_in_0.DFFR_3_.Q net107 vdd vdd vss vss
+ gf180mcu_fd_sc_mcu7t5v0__dlyb_1
X_663_ net125 _075_ clknet_leaf_10_prog_clk logical_tile_clb_mode_clb__0.mem_fle_2_in_0.DFFR_5_.Q
+ vdd vdd vss vss gf180mcu_fd_sc_mcu7t5v0__dffrnq_1
X_594_ net85 _006_ clknet_leaf_14_prog_clk logical_tile_clb_mode_clb__0.mem_fle_3_in_3.DFFR_6_.Q
+ vdd vdd vss vss gf180mcu_fd_sc_mcu7t5v0__dffrnq_1
XTAP_TAPCELL_ROW_26_373 vdd vss gf180mcu_fd_sc_mcu7t5v0__filltie
XFILLER_0_21_142 vdd vdd vss vss gf180mcu_fd_sc_mcu7t5v0__fill_2
XTAP_TAPCELL_ROW_77_796 vdd vss gf180mcu_fd_sc_mcu7t5v0__filltie
XTAP_TAPCELL_ROW_77_785 vdd vss gf180mcu_fd_sc_mcu7t5v0__filltie
XTAP_TAPCELL_ROW_69_719 vdd vss gf180mcu_fd_sc_mcu7t5v0__filltie
XFILLER_0_72_521 vdd vdd vss vss gf180mcu_fd_sc_mcu7t5v0__fillcap_4
XTAP_TAPCELL_ROW_60_652 vdd vss gf180mcu_fd_sc_mcu7t5v0__filltie
XFILLER_0_57_562 vdd vdd vss vss gf180mcu_fd_sc_mcu7t5v0__fillcap_16
XFILLER_0_44_201 vdd vdd vss vss gf180mcu_fd_sc_mcu7t5v0__fill_1
XFILLER_0_16_73 vdd vdd vss vss gf180mcu_fd_sc_mcu7t5v0__fill_2
XFILLER_0_32_94 vdd vdd vss vss gf180mcu_fd_sc_mcu7t5v0__fill_2
XFILLER_0_25_492 vdd vdd vss vss gf180mcu_fd_sc_mcu7t5v0__fillcap_8
XFILLER_0_35_212 vdd vdd vss vss gf180mcu_fd_sc_mcu7t5v0__fill_2
XFILLER_0_23_418 vdd vdd vss vss gf180mcu_fd_sc_mcu7t5v0__fill_2
XTAP_TAPCELL_ROW_23_354 vdd vss gf180mcu_fd_sc_mcu7t5v0__filltie
X_715_ net119 _127_ clknet_leaf_4_prog_clk logical_tile_clb_mode_clb__0.mem_fle_0_in_3.DFFR_7_.Q
+ vdd vdd vss vss gf180mcu_fd_sc_mcu7t5v0__dffrnq_1
XFILLER_0_66_381 vdd vdd vss vss gf180mcu_fd_sc_mcu7t5v0__fillcap_4
XFILLER_0_39_562 vdd vdd vss vss gf180mcu_fd_sc_mcu7t5v0__fillcap_16
X_646_ net198 _058_ clknet_leaf_13_prog_clk logical_tile_clb_mode_clb__0.mem_fle_2_in_2.DFFR_8_.Q
+ vdd vdd vss vss gf180mcu_fd_sc_mcu7t5v0__dffrnq_1
X_577_ _269_ _032_ vdd vdd vss vss gf180mcu_fd_sc_mcu7t5v0__clkinv_2
XFILLER_0_76_101 vdd vdd vss vss gf180mcu_fd_sc_mcu7t5v0__fillcap_4
XFILLER_0_49_348 vdd vdd vss vss gf180mcu_fd_sc_mcu7t5v0__fill_2
XTAP_TAPCELL_ROW_37_468 vdd vss gf180mcu_fd_sc_mcu7t5v0__filltie
XFILLER_0_64_329 vdd vdd vss vss gf180mcu_fd_sc_mcu7t5v0__fill_2
XFILLER_0_60_524 vdd vdd vss vss gf180mcu_fd_sc_mcu7t5v0__fill_1
XFILLER_0_17_212 vdd vdd vss vss gf180mcu_fd_sc_mcu7t5v0__fillcap_16
XANTENNA__535__I _265_ vdd vdd vss vss gf180mcu_fd_sc_mcu7t5v0__antenna
XFILLER_0_60_579 vdd vdd vss vss gf180mcu_fd_sc_mcu7t5v0__fill_2
X_500_ _290_ _228_ vdd vdd vss vss gf180mcu_fd_sc_mcu7t5v0__clkinv_2
Xclkbuf_leaf_22_prog_clk clknet_1_0__leaf_prog_clk clknet_leaf_22_prog_clk vdd vdd
+ vss vss gf180mcu_fd_sc_mcu7t5v0__clkbuf_16
XTAP_TAPCELL_ROW_71_736 vdd vss gf180mcu_fd_sc_mcu7t5v0__filltie
X_362_ _277_ _103_ vdd vdd vss vss gf180mcu_fd_sc_mcu7t5v0__clkinv_2
X_431_ _284_ _165_ vdd vdd vss vss gf180mcu_fd_sc_mcu7t5v0__clkinv_2
XFILLER_0_23_204 vdd vdd vss vss gf180mcu_fd_sc_mcu7t5v0__fill_2
XFILLER_0_64_37 vdd vdd vss vss gf180mcu_fd_sc_mcu7t5v0__fillcap_64
XFILLER_0_58_101 vdd vdd vss vss gf180mcu_fd_sc_mcu7t5v0__fillcap_4
X_629_ net15 _041_ clknet_leaf_18_prog_clk logical_tile_clb_mode_clb__0.mem_fle_2_in_3.DFFR_1_.Q
+ vdd vdd vss vss gf180mcu_fd_sc_mcu7t5v0__dffrnq_1
XANTENNA__355__I _276_ vdd vdd vss vss gf180mcu_fd_sc_mcu7t5v0__antenna
XFILLER_0_39_392 vdd vdd vss vss gf180mcu_fd_sc_mcu7t5v0__fill_2
XTAP_TAPCELL_ROW_34_438 vdd vss gf180mcu_fd_sc_mcu7t5v0__filltie
XFILLER_0_54_395 vdd vdd vss vss gf180mcu_fd_sc_mcu7t5v0__fill_1
XFILLER_0_54_384 vdd vdd vss vss gf180mcu_fd_sc_mcu7t5v0__fill_1
XFILLER_0_42_568 vdd vdd vss vss gf180mcu_fd_sc_mcu7t5v0__fillcap_8
XFILLER_0_42_535 vdd vdd vss vss gf180mcu_fd_sc_mcu7t5v0__fill_1
XFILLER_0_42_524 vdd vdd vss vss gf180mcu_fd_sc_mcu7t5v0__fill_1
XFILLER_0_1_142 vdd vdd vss vss gf180mcu_fd_sc_mcu7t5v0__fillcap_64
XFILLER_0_38_60 vdd vdd vss vss gf180mcu_fd_sc_mcu7t5v0__fillcap_4
XFILLER_0_77_410 vdd vdd vss vss gf180mcu_fd_sc_mcu7t5v0__fillcap_32
XFILLER_0_60_365 vdd vdd vss vss gf180mcu_fd_sc_mcu7t5v0__fill_2
XFILLER_0_60_310 vdd vdd vss vss gf180mcu_fd_sc_mcu7t5v0__fillcap_4
XFILLER_0_45_395 vdd vdd vss vss gf180mcu_fd_sc_mcu7t5v0__fill_1
XFILLER_0_5_492 vdd vdd vss vss gf180mcu_fd_sc_mcu7t5v0__fillcap_64
XFILLER_0_18_521 vdd vdd vss vss gf180mcu_fd_sc_mcu7t5v0__fillcap_4
XFILLER_0_60_387 vdd vdd vss vss gf180mcu_fd_sc_mcu7t5v0__fillcap_8
Xhold193 logical_tile_clb_mode_clb__0.mem_fle_0_in_1.DFFR_3_.Q net204 vdd vdd vss
+ vss gf180mcu_fd_sc_mcu7t5v0__dlyb_1
Xhold160 logical_tile_clb_mode_clb__0.mem_fle_3_in_0.DFFR_6_.Q net171 vdd vdd vss
+ vss gf180mcu_fd_sc_mcu7t5v0__dlyb_1
Xhold182 logical_tile_clb_mode_clb__0.mem_fle_2_in_3.DFFR_9_.Q net193 vdd vdd vss
+ vss gf180mcu_fd_sc_mcu7t5v0__dlyb_1
Xhold171 logical_tile_clb_mode_clb__0.logical_tile_clb_mode_default__fle_2.logical_tile_clb_mode_default__fle_mode_physical__fabric_0.logical_tile_clb_mode_default__fle_mode_physical__fabric_mode_default__frac_logic_0.logical_tile_clb_mode_default__fle_mode_physical__fabric_mode_default__frac_logic_mode_default__frac_lut4_0.frac_lut4_0_.frac_lut4_mux_0_.INVTX1_1_.in
+ net182 vdd vdd vss vss gf180mcu_fd_sc_mcu7t5v0__dlyb_1
XFILLER_0_70_107 vdd vdd vss vss gf180mcu_fd_sc_mcu7t5v0__fillcap_64
X_345_ _275_ _088_ vdd vdd vss vss gf180mcu_fd_sc_mcu7t5v0__clkinv_2
X_414_ _282_ _150_ vdd vdd vss vss gf180mcu_fd_sc_mcu7t5v0__clkinv_2
XTAP_TAPCELL_ROW_31_419 vdd vss gf180mcu_fd_sc_mcu7t5v0__filltie
XFILLER_0_24_524 vdd vdd vss vss gf180mcu_fd_sc_mcu7t5v0__fill_1
XFILLER_0_24_579 vdd vdd vss vss gf180mcu_fd_sc_mcu7t5v0__fill_2
XFILLER_0_59_476 vdd vdd vss vss gf180mcu_fd_sc_mcu7t5v0__fill_2
XTAP_TAPCELL_ROW_47_541 vdd vss gf180mcu_fd_sc_mcu7t5v0__filltie
XFILLER_0_46_104 vdd vdd vss vss gf180mcu_fd_sc_mcu7t5v0__fill_1
XFILLER_0_19_318 vdd vdd vss vss gf180mcu_fd_sc_mcu7t5v0__fill_2
XFILLER_0_74_457 vdd vdd vss vss gf180mcu_fd_sc_mcu7t5v0__fillcap_64
XFILLER_0_42_365 vdd vdd vss vss gf180mcu_fd_sc_mcu7t5v0__fillcap_4
XFILLER_0_57_2 vdd vdd vss vss gf180mcu_fd_sc_mcu7t5v0__fillcap_64
XFILLER_0_2_451 vdd vdd vss vss gf180mcu_fd_sc_mcu7t5v0__fillcap_4
XPHY_EDGE_ROW_12_Right_12 vdd vss gf180mcu_fd_sc_mcu7t5v0__endcap
XFILLER_0_30_527 vdd vdd vss vss gf180mcu_fd_sc_mcu7t5v0__fillcap_8
XTAP_TAPCELL_ROW_2_188 vdd vss gf180mcu_fd_sc_mcu7t5v0__filltie
XPHY_EDGE_ROW_21_Right_21 vdd vss gf180mcu_fd_sc_mcu7t5v0__endcap
XFILLER_0_77_240 vdd vdd vss vss gf180mcu_fd_sc_mcu7t5v0__fillcap_32
XFILLER_0_52_107 vdd vdd vss vss gf180mcu_fd_sc_mcu7t5v0__fillcap_8
XPHY_EDGE_ROW_30_Right_30 vdd vss gf180mcu_fd_sc_mcu7t5v0__endcap
XFILLER_0_18_395 vdd vdd vss vss gf180mcu_fd_sc_mcu7t5v0__fill_1
XTAP_TAPCELL_ROW_44_522 vdd vss gf180mcu_fd_sc_mcu7t5v0__filltie
XFILLER_0_28_104 vdd vdd vss vss gf180mcu_fd_sc_mcu7t5v0__fill_1
XFILLER_0_28_115 vdd vdd vss vss gf180mcu_fd_sc_mcu7t5v0__fill_2
XFILLER_0_71_416 vdd vdd vss vss gf180mcu_fd_sc_mcu7t5v0__fillcap_4
X_328_ _274_ _072_ vdd vdd vss vss gf180mcu_fd_sc_mcu7t5v0__clkinv_2
XANTENNA__773__CLK clknet_leaf_1_prog_clk vdd vdd vss vss gf180mcu_fd_sc_mcu7t5v0__antenna
XFILLER_0_12_527 vdd vdd vss vss gf180mcu_fd_sc_mcu7t5v0__fillcap_32
XFILLER_0_35_61 vdd vdd vss vss gf180mcu_fd_sc_mcu7t5v0__fill_2
XFILLER_0_34_107 vdd vdd vss vss gf180mcu_fd_sc_mcu7t5v0__fill_2
XTAP_TAPCELL_ROW_50_569 vdd vss gf180mcu_fd_sc_mcu7t5v0__filltie
XFILLER_0_15_321 vdd vdd vss vss gf180mcu_fd_sc_mcu7t5v0__fillcap_16
XTAP_TAPCELL_ROW_15_290 vdd vss gf180mcu_fd_sc_mcu7t5v0__filltie
XTAP_TAPCELL_ROW_7_225 vdd vss gf180mcu_fd_sc_mcu7t5v0__filltie
XTAP_TAPCELL_ROW_58_636 vdd vss gf180mcu_fd_sc_mcu7t5v0__filltie
XANTENNA__646__CLK clknet_leaf_13_prog_clk vdd vdd vss vss gf180mcu_fd_sc_mcu7t5v0__antenna
XFILLER_0_65_276 vdd vdd vss vss gf180mcu_fd_sc_mcu7t5v0__fillcap_4
XFILLER_0_38_457 vdd vdd vss vss gf180mcu_fd_sc_mcu7t5v0__fill_2
XFILLER_0_72_37 vdd vdd vss vss gf180mcu_fd_sc_mcu7t5v0__fillcap_64
XFILLER_0_4_579 vdd vdd vss vss gf180mcu_fd_sc_mcu7t5v0__fill_2
XFILLER_0_16_107 vdd vdd vss vss gf180mcu_fd_sc_mcu7t5v0__fillcap_8
XTAP_TAPCELL_ROW_55_606 vdd vss gf180mcu_fd_sc_mcu7t5v0__filltie
XFILLER_0_46_71 vdd vdd vss vss gf180mcu_fd_sc_mcu7t5v0__fillcap_8
XANTENNA__538__I _265_ vdd vdd vss vss gf180mcu_fd_sc_mcu7t5v0__antenna
XTAP_TAPCELL_ROW_63_672 vdd vss gf180mcu_fd_sc_mcu7t5v0__filltie
Xhold20 logical_tile_clb_mode_clb__0.logical_tile_clb_mode_default__fle_3.logical_tile_clb_mode_default__fle_mode_physical__fabric_0.logical_tile_clb_mode_default__fle_mode_physical__fabric_mode_default__frac_logic_0.logical_tile_clb_mode_default__fle_mode_physical__fabric_mode_default__frac_logic_mode_default__frac_lut4_0.frac_lut4_0_.frac_lut4_mux_0_.INVTX1_8_.in
+ net31 vdd vdd vss vss gf180mcu_fd_sc_mcu7t5v0__dlyb_1
X_662_ net107 _074_ clknet_leaf_9_prog_clk logical_tile_clb_mode_clb__0.mem_fle_2_in_0.DFFR_4_.Q
+ vdd vdd vss vss gf180mcu_fd_sc_mcu7t5v0__dffrnq_1
Xhold75 logical_tile_clb_mode_clb__0.mem_fle_2_in_1.DFFR_1_.Q net86 vdd vdd vss vss
+ gf180mcu_fd_sc_mcu7t5v0__dlyb_1
X_731_ net208 _143_ clknet_leaf_11_prog_clk logical_tile_clb_mode_clb__0.mem_fle_0_in_1.DFFR_3_.Q
+ vdd vdd vss vss gf180mcu_fd_sc_mcu7t5v0__dffrnq_1
Xhold86 logical_tile_clb_mode_clb__0.logical_tile_clb_mode_default__fle_1.logical_tile_clb_mode_default__fle_mode_physical__fabric_0.logical_tile_clb_mode_default__fle_mode_physical__fabric_mode_default__frac_logic_0.logical_tile_clb_mode_default__fle_mode_physical__fabric_mode_default__frac_logic_mode_default__frac_lut4_0.frac_lut4_0_.frac_lut4_mux_0_.INVTX1_11_.in
+ net97 vdd vdd vss vss gf180mcu_fd_sc_mcu7t5v0__dlyb_1
Xhold42 logical_tile_clb_mode_clb__0.logical_tile_clb_mode_default__fle_0.logical_tile_clb_mode_default__fle_mode_physical__fabric_0.logical_tile_clb_mode_default__fle_mode_physical__fabric_mode_default__frac_logic_0.logical_tile_clb_mode_default__fle_mode_physical__fabric_mode_default__frac_logic_mode_default__frac_lut4_0.frac_lut4_0_.frac_lut4_mux_0_.INVTX1_5_.in
+ net53 vdd vdd vss vss gf180mcu_fd_sc_mcu7t5v0__dlyb_1
Xhold53 logical_tile_clb_mode_clb__0.mem_fle_3_in_0.DFFR_7_.Q net64 vdd vdd vss vss
+ gf180mcu_fd_sc_mcu7t5v0__dlyb_1
Xhold97 logical_tile_clb_mode_clb__0.logical_tile_clb_mode_default__fle_2.logical_tile_clb_mode_default__fle_mode_physical__fabric_0.logical_tile_clb_mode_default__fle_mode_physical__fabric_mode_default__frac_logic_0.logical_tile_clb_mode_default__fle_mode_physical__fabric_mode_default__frac_logic_mode_default__frac_lut4_0.frac_lut4_0_.frac_lut4_mux_0_.INVTX1_4_.in
+ net108 vdd vdd vss vss gf180mcu_fd_sc_mcu7t5v0__dlyb_1
Xhold31 logical_tile_clb_mode_clb__0.mem_fle_3_in_3.DFFR_1_.Q net42 vdd vdd vss vss
+ gf180mcu_fd_sc_mcu7t5v0__dlyb_1
Xhold64 logical_tile_clb_mode_clb__0.logical_tile_clb_mode_default__fle_0.logical_tile_clb_mode_default__fle_mode_physical__fabric_0.logical_tile_clb_mode_default__fle_mode_physical__fabric_mode_default__frac_logic_0.logical_tile_clb_mode_default__fle_mode_physical__fabric_mode_default__frac_logic_mode_default__frac_lut4_0.frac_lut4_0_.frac_lut4_mux_0_.INVTX1_9_.in
+ net75 vdd vdd vss vss gf180mcu_fd_sc_mcu7t5v0__dlyb_1
X_800_ net213 _212_ clknet_leaf_20_prog_clk logical_tile_clb_mode_clb__0.logical_tile_clb_mode_default__fle_1.logical_tile_clb_mode_default__fle_mode_physical__fabric_0.logical_tile_clb_mode_default__fle_mode_physical__fabric_mode_default__frac_logic_0.mem_frac_logic_out_0.DFFR_0_.Q
+ vdd vdd vss vss gf180mcu_fd_sc_mcu7t5v0__dffrnq_1
X_593_ net59 _005_ clknet_leaf_13_prog_clk logical_tile_clb_mode_clb__0.mem_fle_3_in_3.DFFR_5_.Q
+ vdd vdd vss vss gf180mcu_fd_sc_mcu7t5v0__dffrnq_1
XTAP_TAPCELL_ROW_26_374 vdd vss gf180mcu_fd_sc_mcu7t5v0__filltie
XFILLER_0_21_132 vdd vdd vss vss gf180mcu_fd_sc_mcu7t5v0__fill_2
XTAP_TAPCELL_ROW_77_797 vdd vss gf180mcu_fd_sc_mcu7t5v0__filltie
XTAP_TAPCELL_ROW_77_786 vdd vss gf180mcu_fd_sc_mcu7t5v0__filltie
XANTENNA__358__I _272_ vdd vdd vss vss gf180mcu_fd_sc_mcu7t5v0__antenna
XFILLER_0_40_496 vdd vdd vss vss gf180mcu_fd_sc_mcu7t5v0__fillcap_4
XPHY_EDGE_ROW_6_Right_6 vdd vss gf180mcu_fd_sc_mcu7t5v0__endcap
XFILLER_0_4_387 vdd vdd vss vss gf180mcu_fd_sc_mcu7t5v0__fillcap_64
XFILLER_0_48_552 vdd vdd vss vss gf180mcu_fd_sc_mcu7t5v0__fillcap_16
XFILLER_0_35_279 vdd vdd vss vss gf180mcu_fd_sc_mcu7t5v0__fill_1
XTAP_TAPCELL_ROW_23_355 vdd vss gf180mcu_fd_sc_mcu7t5v0__filltie
XFILLER_0_37_18 vdd vdd vss vss gf180mcu_fd_sc_mcu7t5v0__fill_2
XFILLER_0_31_496 vdd vdd vss vss gf180mcu_fd_sc_mcu7t5v0__fillcap_4
XFILLER_0_9_2 vdd vdd vss vss gf180mcu_fd_sc_mcu7t5v0__fillcap_64
X_714_ net262 _126_ clknet_leaf_4_prog_clk logical_tile_clb_mode_clb__0.mem_fle_0_in_3.DFFR_6_.Q
+ vdd vdd vss vss gf180mcu_fd_sc_mcu7t5v0__dffrnq_1
X_645_ net28 _057_ clknet_leaf_13_prog_clk logical_tile_clb_mode_clb__0.mem_fle_2_in_2.DFFR_7_.Q
+ vdd vdd vss vss gf180mcu_fd_sc_mcu7t5v0__dffrnq_1
XPHY_EDGE_ROW_59_Right_59 vdd vss gf180mcu_fd_sc_mcu7t5v0__endcap
XFILLER_0_54_522 vdd vdd vss vss gf180mcu_fd_sc_mcu7t5v0__fill_2
X_576_ _269_ _031_ vdd vdd vss vss gf180mcu_fd_sc_mcu7t5v0__clkinv_2
XFILLER_0_1_346 vdd vdd vss vss gf180mcu_fd_sc_mcu7t5v0__fillcap_4
XFILLER_0_22_452 vdd vdd vss vss gf180mcu_fd_sc_mcu7t5v0__fill_2
XFILLER_0_26_257 vdd vdd vss vss gf180mcu_fd_sc_mcu7t5v0__fill_2
XPHY_EDGE_ROW_68_Right_68 vdd vss gf180mcu_fd_sc_mcu7t5v0__endcap
XFILLER_0_43_72 vdd vdd vss vss gf180mcu_fd_sc_mcu7t5v0__fillcap_8
XFILLER_0_43_61 vdd vdd vss vss gf180mcu_fd_sc_mcu7t5v0__fillcap_8
XPHY_EDGE_ROW_77_Right_77 vdd vss gf180mcu_fd_sc_mcu7t5v0__endcap
XFILLER_0_45_500 vdd vdd vss vss gf180mcu_fd_sc_mcu7t5v0__fill_1
XTAP_TAPCELL_ROW_20_325 vdd vss gf180mcu_fd_sc_mcu7t5v0__filltie
XFILLER_0_7_72 vdd vdd vss vss gf180mcu_fd_sc_mcu7t5v0__fillcap_64
XTAP_TAPCELL_ROW_71_737 vdd vss gf180mcu_fd_sc_mcu7t5v0__filltie
X_361_ _277_ _102_ vdd vdd vss vss gf180mcu_fd_sc_mcu7t5v0__clkinv_2
X_430_ _284_ _164_ vdd vdd vss vss gf180mcu_fd_sc_mcu7t5v0__clkinv_2
XFILLER_0_63_352 vdd vdd vss vss gf180mcu_fd_sc_mcu7t5v0__fill_2
XFILLER_0_51_558 vdd vdd vss vss gf180mcu_fd_sc_mcu7t5v0__fill_2
XFILLER_0_51_525 vdd vdd vss vss gf180mcu_fd_sc_mcu7t5v0__fill_1
XFILLER_0_36_577 vdd vdd vss vss gf180mcu_fd_sc_mcu7t5v0__fillcap_4
XFILLER_0_23_216 vdd vdd vss vss gf180mcu_fd_sc_mcu7t5v0__fill_1
XFILLER_0_31_282 vdd vdd vss vss gf180mcu_fd_sc_mcu7t5v0__fill_2
X_628_ net274 _040_ clknet_leaf_19_prog_clk logical_tile_clb_mode_clb__0.mem_fle_2_in_3.DFFR_0_.Q
+ vdd vdd vss vss gf180mcu_fd_sc_mcu7t5v0__dffrnq_1
XTAP_TAPCELL_ROW_34_439 vdd vss gf180mcu_fd_sc_mcu7t5v0__filltie
X_559_ _267_ _016_ vdd vdd vss vss gf180mcu_fd_sc_mcu7t5v0__clkinv_2
XFILLER_0_27_500 vdd vdd vss vss gf180mcu_fd_sc_mcu7t5v0__fill_1
XFILLER_0_50_580 vdd vdd vss vss gf180mcu_fd_sc_mcu7t5v0__fill_1
XFILLER_0_77_444 vdd vdd vss vss gf180mcu_fd_sc_mcu7t5v0__fillcap_32
XFILLER_0_9_276 vdd vdd vss vss gf180mcu_fd_sc_mcu7t5v0__fillcap_4
XFILLER_0_72_171 vdd vdd vss vss gf180mcu_fd_sc_mcu7t5v0__fillcap_4
XFILLER_0_45_352 vdd vdd vss vss gf180mcu_fd_sc_mcu7t5v0__fill_1
XFILLER_0_33_558 vdd vdd vss vss gf180mcu_fd_sc_mcu7t5v0__fill_2
XFILLER_0_33_525 vdd vdd vss vss gf180mcu_fd_sc_mcu7t5v0__fill_1
Xhold194 logical_tile_clb_mode_clb__0.mem_fle_0_in_2.DFFR_0_.Q net205 vdd vdd vss
+ vss gf180mcu_fd_sc_mcu7t5v0__dlyb_1
Xhold183 logical_tile_clb_mode_clb__0.logical_tile_clb_mode_default__fle_3.logical_tile_clb_mode_default__fle_mode_physical__fabric_0.logical_tile_clb_mode_default__fle_mode_physical__fabric_mode_default__frac_logic_0.logical_tile_clb_mode_default__fle_mode_physical__fabric_mode_default__frac_logic_mode_default__frac_lut4_0.frac_lut4_0_.frac_lut4_mux_0_.INVTX1_14_.in
+ net194 vdd vdd vss vss gf180mcu_fd_sc_mcu7t5v0__dlyb_1
XFILLER_0_41_580 vdd vdd vss vss gf180mcu_fd_sc_mcu7t5v0__fill_1
Xhold150 logical_tile_clb_mode_clb__0.logical_tile_clb_mode_default__fle_2.ccff_tail
+ net161 vdd vdd vss vss gf180mcu_fd_sc_mcu7t5v0__dlyb_1
XFILLER_0_13_282 vdd vdd vss vss gf180mcu_fd_sc_mcu7t5v0__fillcap_64
Xhold161 logical_tile_clb_mode_clb__0.mem_fle_3_in_1.DFFR_4_.Q net172 vdd vdd vss
+ vss gf180mcu_fd_sc_mcu7t5v0__dlyb_1
Xhold172 logical_tile_clb_mode_clb__0.logical_tile_clb_mode_default__fle_2.logical_tile_clb_mode_default__fle_mode_physical__fabric_0.logical_tile_clb_mode_default__fle_mode_physical__fabric_mode_default__frac_logic_0.mem_frac_logic_out_0.DFFR_1_.Q
+ net183 vdd vdd vss vss gf180mcu_fd_sc_mcu7t5v0__dlyb_1
X_413_ _272_ _282_ vdd vdd vss vss gf180mcu_fd_sc_mcu7t5v0__buf_8
X_344_ _275_ _087_ vdd vdd vss vss gf180mcu_fd_sc_mcu7t5v0__clkinv_2
XFILLER_0_32_580 vdd vdd vss vss gf180mcu_fd_sc_mcu7t5v0__fill_1
XFILLER_0_59_488 vdd vdd vss vss gf180mcu_fd_sc_mcu7t5v0__fill_2
XFILLER_0_59_422 vdd vdd vss vss gf180mcu_fd_sc_mcu7t5v0__fillcap_4
XTAP_TAPCELL_ROW_47_542 vdd vss gf180mcu_fd_sc_mcu7t5v0__filltie
XFILLER_0_10_241 vdd vdd vss vss gf180mcu_fd_sc_mcu7t5v0__fillcap_4
XFILLER_0_23_580 vdd vdd vss vss gf180mcu_fd_sc_mcu7t5v0__fill_1
XFILLER_0_77_274 vdd vdd vss vss gf180mcu_fd_sc_mcu7t5v0__fillcap_32
XTAP_TAPCELL_ROW_53_589 vdd vss gf180mcu_fd_sc_mcu7t5v0__filltie
XFILLER_0_18_341 vdd vdd vss vss gf180mcu_fd_sc_mcu7t5v0__fillcap_4
XFILLER_0_33_399 vdd vdd vss vss gf180mcu_fd_sc_mcu7t5v0__fill_2
XFILLER_0_29_19 vdd vdd vss vss gf180mcu_fd_sc_mcu7t5v0__fillcap_8
XFILLER_0_68_241 vdd vdd vss vss gf180mcu_fd_sc_mcu7t5v0__fillcap_4
XTAP_TAPCELL_ROW_44_523 vdd vss gf180mcu_fd_sc_mcu7t5v0__filltie
X_327_ _274_ _071_ vdd vdd vss vss gf180mcu_fd_sc_mcu7t5v0__clkinv_2
XFILLER_0_59_230 vdd vdd vss vss gf180mcu_fd_sc_mcu7t5v0__fillcap_4
XFILLER_0_59_263 vdd vdd vss vss gf180mcu_fd_sc_mcu7t5v0__fill_1
XFILLER_0_51_72 vdd vdd vss vss gf180mcu_fd_sc_mcu7t5v0__fillcap_32