* NGSPICE file created from sb_0__2_.ext - technology: gf180mcuD

* Black-box entry subcircuit for gf180mcu_fd_sc_mcu7t5v0__fillcap_8 abstract view
.subckt gf180mcu_fd_sc_mcu7t5v0__fillcap_8 VDD VNW VPW VSS
.ends

* Black-box entry subcircuit for gf180mcu_fd_sc_mcu7t5v0__antenna abstract view
.subckt gf180mcu_fd_sc_mcu7t5v0__antenna I VDD VNW VPW VSS
.ends

* Black-box entry subcircuit for gf180mcu_fd_sc_mcu7t5v0__fill_2 abstract view
.subckt gf180mcu_fd_sc_mcu7t5v0__fill_2 VDD VNW VPW VSS
.ends

* Black-box entry subcircuit for gf180mcu_fd_sc_mcu7t5v0__filltie abstract view
.subckt gf180mcu_fd_sc_mcu7t5v0__filltie VDD VSS
.ends

* Black-box entry subcircuit for gf180mcu_fd_sc_mcu7t5v0__endcap abstract view
.subckt gf180mcu_fd_sc_mcu7t5v0__endcap VDD VSS
.ends

* Black-box entry subcircuit for gf180mcu_fd_sc_mcu7t5v0__dffrnq_1 abstract view
.subckt gf180mcu_fd_sc_mcu7t5v0__dffrnq_1 D RN CLK Q VDD VNW VPW VSS
.ends

* Black-box entry subcircuit for gf180mcu_fd_sc_mcu7t5v0__clkinv_2 abstract view
.subckt gf180mcu_fd_sc_mcu7t5v0__clkinv_2 I ZN VDD VNW VPW VSS
.ends

* Black-box entry subcircuit for gf180mcu_fd_sc_mcu7t5v0__fillcap_4 abstract view
.subckt gf180mcu_fd_sc_mcu7t5v0__fillcap_4 VDD VNW VPW VSS
.ends

* Black-box entry subcircuit for gf180mcu_fd_sc_mcu7t5v0__fill_1 abstract view
.subckt gf180mcu_fd_sc_mcu7t5v0__fill_1 VDD VNW VPW VSS
.ends

* Black-box entry subcircuit for gf180mcu_fd_sc_mcu7t5v0__fillcap_64 abstract view
.subckt gf180mcu_fd_sc_mcu7t5v0__fillcap_64 VDD VNW VPW VSS
.ends

* Black-box entry subcircuit for gf180mcu_fd_sc_mcu7t5v0__fillcap_16 abstract view
.subckt gf180mcu_fd_sc_mcu7t5v0__fillcap_16 VDD VNW VPW VSS
.ends

* Black-box entry subcircuit for gf180mcu_fd_sc_mcu7t5v0__dlyb_1 abstract view
.subckt gf180mcu_fd_sc_mcu7t5v0__dlyb_1 I Z VDD VNW VPW VSS
.ends

* Black-box entry subcircuit for gf180mcu_fd_sc_mcu7t5v0__buf_3 abstract view
.subckt gf180mcu_fd_sc_mcu7t5v0__buf_3 I Z VDD VNW VPW VSS
.ends

* Black-box entry subcircuit for gf180mcu_fd_sc_mcu7t5v0__clkbuf_1 abstract view
.subckt gf180mcu_fd_sc_mcu7t5v0__clkbuf_1 I Z VDD VNW VPW VSS
.ends

* Black-box entry subcircuit for gf180mcu_fd_sc_mcu7t5v0__clkbuf_16 abstract view
.subckt gf180mcu_fd_sc_mcu7t5v0__clkbuf_16 I Z VDD VNW VPW VSS
.ends

* Black-box entry subcircuit for gf180mcu_fd_sc_mcu7t5v0__fillcap_32 abstract view
.subckt gf180mcu_fd_sc_mcu7t5v0__fillcap_32 VDD VNW VPW VSS
.ends

* Black-box entry subcircuit for gf180mcu_fd_sc_mcu7t5v0__clkbuf_3 abstract view
.subckt gf180mcu_fd_sc_mcu7t5v0__clkbuf_3 I Z VDD VNW VPW VSS
.ends

* Black-box entry subcircuit for gf180mcu_fd_sc_mcu7t5v0__buf_4 abstract view
.subckt gf180mcu_fd_sc_mcu7t5v0__buf_4 I Z VDD VNW VPW VSS
.ends

* Black-box entry subcircuit for gf180mcu_fd_sc_mcu7t5v0__tiel abstract view
.subckt gf180mcu_fd_sc_mcu7t5v0__tiel ZN VDD VNW VPW VSS
.ends

* Black-box entry subcircuit for gf180mcu_fd_sc_mcu7t5v0__buf_8 abstract view
.subckt gf180mcu_fd_sc_mcu7t5v0__buf_8 I Z VDD VNW VPW VSS
.ends

* Black-box entry subcircuit for gf180mcu_fd_sc_mcu7t5v0__clkbuf_2 abstract view
.subckt gf180mcu_fd_sc_mcu7t5v0__clkbuf_2 I Z VDD VNW VPW VSS
.ends

.subckt sb_0__2_ bottom_left_grid_right_width_0_height_0_subtile_0__pin_inpad_0_ bottom_left_grid_right_width_0_height_0_subtile_1__pin_inpad_0_
+ bottom_left_grid_right_width_0_height_0_subtile_2__pin_inpad_0_ bottom_left_grid_right_width_0_height_0_subtile_3__pin_inpad_0_
+ bottom_right_grid_left_width_0_height_0_subtile_0__pin_O_3_ bottom_right_grid_left_width_0_height_0_subtile_0__pin_O_7_
+ ccff_head ccff_tail chanx_right_in[0] chanx_right_in[10] chanx_right_in[11] chanx_right_in[12]
+ chanx_right_in[13] chanx_right_in[14] chanx_right_in[15] chanx_right_in[16] chanx_right_in[17]
+ chanx_right_in[18] chanx_right_in[19] chanx_right_in[1] chanx_right_in[2] chanx_right_in[3]
+ chanx_right_in[4] chanx_right_in[5] chanx_right_in[6] chanx_right_in[7] chanx_right_in[8]
+ chanx_right_in[9] chanx_right_out[16] chanx_right_out[17] chanx_right_out[18] chanx_right_out[19]
+ chanx_right_out[1] chanx_right_out[2] chanx_right_out[4] chanx_right_out[6] chanx_right_out[7]
+ chanx_right_out[8] chanx_right_out[9] chany_bottom_in[0] chany_bottom_in[10] chany_bottom_in[11]
+ chany_bottom_in[12] chany_bottom_in[13] chany_bottom_in[14] chany_bottom_in[15]
+ chany_bottom_in[16] chany_bottom_in[17] chany_bottom_in[18] chany_bottom_in[19]
+ chany_bottom_in[1] chany_bottom_in[2] chany_bottom_in[3] chany_bottom_in[4] chany_bottom_in[5]
+ chany_bottom_in[6] chany_bottom_in[7] chany_bottom_in[8] chany_bottom_in[9] chany_bottom_out[16]
+ chany_bottom_out[17] chany_bottom_out[18] chany_bottom_out[19] chany_bottom_out[6]
+ chany_bottom_out[7] chany_bottom_out[8] chany_bottom_out[9] pReset prog_clk right_bottom_grid_top_width_0_height_0_subtile_0__pin_O_0_
+ right_bottom_grid_top_width_0_height_0_subtile_0__pin_O_4_ right_top_grid_bottom_width_0_height_0_subtile_0__pin_inpad_0_
+ right_top_grid_bottom_width_0_height_0_subtile_1__pin_inpad_0_ right_top_grid_bottom_width_0_height_0_subtile_2__pin_inpad_0_
+ right_top_grid_bottom_width_0_height_0_subtile_3__pin_inpad_0_ vdd vss chany_bottom_out[12]
+ chanx_right_out[14] chany_bottom_out[13] chany_bottom_out[14] chanx_right_out[15]
+ chanx_right_out[0] chany_bottom_out[15] chany_bottom_out[0] chany_bottom_out[1]
+ chanx_right_out[3] chany_bottom_out[2] chany_bottom_out[3] chany_bottom_out[4] chanx_right_out[5]
+ chany_bottom_out[5] chanx_right_out[10] chanx_right_out[11] chany_bottom_out[10]
+ chany_bottom_out[11] chanx_right_out[12] chanx_right_out[13]
XFILLER_0_7_92 vdd vdd vss vss gf180mcu_fd_sc_mcu7t5v0__fillcap_8
XANTENNA__140__CLK clknet_2_3__leaf_prog_clk vdd vdd vss vss gf180mcu_fd_sc_mcu7t5v0__antenna
XFILLER_0_13_84 vdd vdd vss vss gf180mcu_fd_sc_mcu7t5v0__fill_2
XFILLER_0_1_152 vdd vdd vss vss gf180mcu_fd_sc_mcu7t5v0__fill_2
XTAP_TAPCELL_ROW_8_88 vdd vss gf180mcu_fd_sc_mcu7t5v0__filltie
XPHY_EDGE_ROW_20_Left_50 vdd vss gf180mcu_fd_sc_mcu7t5v0__endcap
X_131_ net87 _025_ clknet_2_1__leaf_prog_clk mem_bottom_track_1.DFFR_0_.Q vdd vdd
+ vss vss gf180mcu_fd_sc_mcu7t5v0__dffrnq_1
X_062_ _049_ _007_ vdd vdd vss vss gf180mcu_fd_sc_mcu7t5v0__clkinv_2
XFILLER_0_28_125 vdd vdd vss vss gf180mcu_fd_sc_mcu7t5v0__fillcap_4
XFILLER_0_3_203 vdd vdd vss vss gf180mcu_fd_sc_mcu7t5v0__fill_1
XFILLER_0_27_180 vdd vdd vss vss gf180mcu_fd_sc_mcu7t5v0__fill_1
XFILLER_0_19_72 vdd vdd vss vss gf180mcu_fd_sc_mcu7t5v0__fillcap_8
XFILLER_0_19_50 vdd vdd vss vss gf180mcu_fd_sc_mcu7t5v0__fill_1
XFILLER_0_0_206 vdd vdd vss vss gf180mcu_fd_sc_mcu7t5v0__fill_1
X_114_ net71 _008_ clknet_2_0__leaf_prog_clk mem_right_track_10.DFFR_0_.D vdd vdd
+ vss vss gf180mcu_fd_sc_mcu7t5v0__dffrnq_1
XFILLER_0_27_2 vdd vdd vss vss gf180mcu_fd_sc_mcu7t5v0__fillcap_64
XFILLER_0_1_72 vdd vdd vss vss gf180mcu_fd_sc_mcu7t5v0__fillcap_16
Xhold30 mem_right_track_2.DFFR_0_.Q net89 vdd vdd vss vss gf180mcu_fd_sc_mcu7t5v0__dlyb_1
Xhold41 mem_right_track_0.DFFR_1_.Q net100 vdd vdd vss vss gf180mcu_fd_sc_mcu7t5v0__dlyb_1
XFILLER_0_21_142 vdd vdd vss vss gf180mcu_fd_sc_mcu7t5v0__fill_2
XFILLER_0_8_125 vdd vdd vss vss gf180mcu_fd_sc_mcu7t5v0__fill_1
Xoutput31 net31 chany_bottom_out[19] vdd vdd vss vss gf180mcu_fd_sc_mcu7t5v0__buf_3
Xoutput20 net20 chanx_right_out[16] vdd vdd vss vss gf180mcu_fd_sc_mcu7t5v0__buf_3
XFILLER_0_27_72 vdd vdd vss vss gf180mcu_fd_sc_mcu7t5v0__fillcap_16
XFILLER_0_17_212 vdd vdd vss vss gf180mcu_fd_sc_mcu7t5v0__fill_2
XFILLER_0_4_172 vdd vdd vss vss gf180mcu_fd_sc_mcu7t5v0__fill_2
XFILLER_0_23_237 vdd vdd vss vss gf180mcu_fd_sc_mcu7t5v0__fillcap_4
XANTENNA__090__I _052_ vdd vdd vss vss gf180mcu_fd_sc_mcu7t5v0__antenna
XFILLER_0_13_63 vdd vdd vss vss gf180mcu_fd_sc_mcu7t5v0__fill_1
XFILLER_0_1_142 vdd vdd vss vss gf180mcu_fd_sc_mcu7t5v0__fillcap_4
XFILLER_0_9_220 vdd vdd vss vss gf180mcu_fd_sc_mcu7t5v0__fill_1
XFILLER_0_11_218 vdd vdd vss vss gf180mcu_fd_sc_mcu7t5v0__fill_1
XTAP_TAPCELL_ROW_8_89 vdd vss gf180mcu_fd_sc_mcu7t5v0__filltie
XPHY_EDGE_ROW_21_Right_21 vdd vss gf180mcu_fd_sc_mcu7t5v0__endcap
X_130_ net82 _024_ clknet_2_1__leaf_prog_clk mem_bottom_track_1.DFFR_1_.Q vdd vdd
+ vss vss gf180mcu_fd_sc_mcu7t5v0__dffrnq_1
XPHY_EDGE_ROW_12_Right_12 vdd vss gf180mcu_fd_sc_mcu7t5v0__endcap
X_061_ _049_ _006_ vdd vdd vss vss gf180mcu_fd_sc_mcu7t5v0__clkinv_2
XANTENNA__153__CLK clknet_2_2__leaf_prog_clk vdd vdd vss vss gf180mcu_fd_sc_mcu7t5v0__antenna
XFILLER_0_18_181 vdd vdd vss vss gf180mcu_fd_sc_mcu7t5v0__fill_2
XTAP_TAPCELL_ROW_5_79 vdd vss gf180mcu_fd_sc_mcu7t5v0__filltie
X_113_ net78 _007_ clknet_2_0__leaf_prog_clk mem_right_track_6.DFFR_0_.Q vdd vdd vss
+ vss gf180mcu_fd_sc_mcu7t5v0__dffrnq_1
Xhold42 mem_bottom_track_21.DFFR_1_.Q net101 vdd vdd vss vss gf180mcu_fd_sc_mcu7t5v0__dlyb_1
Xhold31 mem_bottom_track_11.DFFR_0_.D net90 vdd vdd vss vss gf180mcu_fd_sc_mcu7t5v0__dlyb_1
XFILLER_0_15_184 vdd vdd vss vss gf180mcu_fd_sc_mcu7t5v0__fill_2
Xhold20 mem_right_track_30.DFFR_0_.Q net79 vdd vdd vss vss gf180mcu_fd_sc_mcu7t5v0__dlyb_1
XFILLER_0_21_154 vdd vdd vss vss gf180mcu_fd_sc_mcu7t5v0__fill_1
XFILLER_0_29_210 vdd vdd vss vss gf180mcu_fd_sc_mcu7t5v0__fill_1
XANTENNA_input11_I chany_bottom_in[10] vdd vdd vss vss gf180mcu_fd_sc_mcu7t5v0__antenna
XANTENNA__093__I _052_ vdd vdd vss vss gf180mcu_fd_sc_mcu7t5v0__antenna
XPHY_EDGE_ROW_6_Right_6 vdd vss gf180mcu_fd_sc_mcu7t5v0__endcap
Xoutput32 net32 chany_bottom_out[6] vdd vdd vss vss gf180mcu_fd_sc_mcu7t5v0__buf_3
Xoutput21 net21 chanx_right_out[17] vdd vdd vss vss gf180mcu_fd_sc_mcu7t5v0__buf_3
XANTENNA__088__I _052_ vdd vdd vss vss gf180mcu_fd_sc_mcu7t5v0__antenna
XANTENNA_input3_I chanx_right_in[10] vdd vdd vss vss gf180mcu_fd_sc_mcu7t5v0__antenna
XFILLER_0_11_6 vdd vdd vss vss gf180mcu_fd_sc_mcu7t5v0__fillcap_8
XFILLER_0_23_216 vdd vdd vss vss gf180mcu_fd_sc_mcu7t5v0__fill_2
XFILLER_0_7_50 vdd vdd vss vss gf180mcu_fd_sc_mcu7t5v0__fillcap_4
XFILLER_0_7_72 vdd vdd vss vss gf180mcu_fd_sc_mcu7t5v0__fillcap_4
XFILLER_0_13_86 vdd vdd vss vss gf180mcu_fd_sc_mcu7t5v0__fill_1
XFILLER_0_6_202 vdd vdd vss vss gf180mcu_fd_sc_mcu7t5v0__fillcap_4
X_060_ _049_ _005_ vdd vdd vss vss gf180mcu_fd_sc_mcu7t5v0__clkinv_2
X_189_ net8 net28 vdd vdd vss vss gf180mcu_fd_sc_mcu7t5v0__clkbuf_1
XANTENNA__096__I _052_ vdd vdd vss vss gf180mcu_fd_sc_mcu7t5v0__antenna
XFILLER_0_18_160 vdd vdd vss vss gf180mcu_fd_sc_mcu7t5v0__fill_1
XPHY_EDGE_ROW_8_Left_38 vdd vss gf180mcu_fd_sc_mcu7t5v0__endcap
X_112_ net68 _006_ clknet_2_0__leaf_prog_clk mem_right_track_6.DFFR_1_.Q vdd vdd vss
+ vss gf180mcu_fd_sc_mcu7t5v0__dffrnq_1
XFILLER_0_0_219 vdd vdd vss vss gf180mcu_fd_sc_mcu7t5v0__fill_1
XANTENNA__120__CLK clknet_2_2__leaf_prog_clk vdd vdd vss vss gf180mcu_fd_sc_mcu7t5v0__antenna
XFILLER_0_1_96 vdd vdd vss vss gf180mcu_fd_sc_mcu7t5v0__fillcap_4
XANTENNA__143__CLK clknet_2_3__leaf_prog_clk vdd vdd vss vss gf180mcu_fd_sc_mcu7t5v0__antenna
XFILLER_0_21_122 vdd vdd vss vss gf180mcu_fd_sc_mcu7t5v0__fill_1
Xhold10 mem_bottom_track_7.DFFR_0_.Q net69 vdd vdd vss vss gf180mcu_fd_sc_mcu7t5v0__dlyb_1
Xhold32 mem_bottom_track_5.DFFR_0_.Q net91 vdd vdd vss vss gf180mcu_fd_sc_mcu7t5v0__dlyb_1
Xhold43 mem_right_track_6.DFFR_1_.Q net102 vdd vdd vss vss gf180mcu_fd_sc_mcu7t5v0__dlyb_1
Xhold21 mem_right_track_10.DFFR_0_.Q net80 vdd vdd vss vss gf180mcu_fd_sc_mcu7t5v0__dlyb_1
XFILLER_0_12_177 vdd vdd vss vss gf180mcu_fd_sc_mcu7t5v0__fill_2
Xoutput33 net33 chany_bottom_out[7] vdd vdd vss vss gf180mcu_fd_sc_mcu7t5v0__buf_3
Xoutput22 net22 chanx_right_out[18] vdd vdd vss vss gf180mcu_fd_sc_mcu7t5v0__buf_3
XFILLER_0_7_182 vdd vdd vss vss gf180mcu_fd_sc_mcu7t5v0__fill_2
XFILLER_0_27_96 vdd vdd vss vss gf180mcu_fd_sc_mcu7t5v0__fillcap_4
XFILLER_0_26_225 vdd vdd vss vss gf180mcu_fd_sc_mcu7t5v0__fillcap_8
XFILLER_0_5_108 vdd vdd vss vss gf180mcu_fd_sc_mcu7t5v0__fillcap_8
XTAP_TAPCELL_ROW_15_109 vdd vss gf180mcu_fd_sc_mcu7t5v0__filltie
XFILLER_0_4_196 vdd vdd vss vss gf180mcu_fd_sc_mcu7t5v0__fillcap_4
XFILLER_0_4_174 vdd vdd vss vss gf180mcu_fd_sc_mcu7t5v0__fill_1
XFILLER_0_23_206 vdd vdd vss vss gf180mcu_fd_sc_mcu7t5v0__fillcap_4
XFILLER_0_1_100 vdd vdd vss vss gf180mcu_fd_sc_mcu7t5v0__fill_2
XANTENNA__099__I _048_ vdd vdd vss vss gf180mcu_fd_sc_mcu7t5v0__antenna
XFILLER_0_9_200 vdd vdd vss vss gf180mcu_fd_sc_mcu7t5v0__fill_2
XFILLER_0_4_63 vdd vdd vss vss gf180mcu_fd_sc_mcu7t5v0__fill_2
XFILLER_0_28_139 vdd vdd vss vss gf180mcu_fd_sc_mcu7t5v0__fill_2
XFILLER_0_28_117 vdd vdd vss vss gf180mcu_fd_sc_mcu7t5v0__fillcap_4
X_188_ net7 net29 vdd vdd vss vss gf180mcu_fd_sc_mcu7t5v0__clkbuf_1
XPHY_EDGE_ROW_24_Left_54 vdd vss gf180mcu_fd_sc_mcu7t5v0__endcap
XFILLER_0_19_42 vdd vdd vss vss gf180mcu_fd_sc_mcu7t5v0__fillcap_8
XFILLER_0_10_99 vdd vdd vss vss gf180mcu_fd_sc_mcu7t5v0__fill_2
XFILLER_0_27_183 vdd vdd vss vss gf180mcu_fd_sc_mcu7t5v0__fillcap_4
XFILLER_0_19_139 vdd vdd vss vss gf180mcu_fd_sc_mcu7t5v0__fill_1
X_111_ net70 _005_ clknet_2_0__leaf_prog_clk mem_right_track_4.DFFR_0_.Q vdd vdd vss
+ vss gf180mcu_fd_sc_mcu7t5v0__dffrnq_1
XFILLER_0_21_98 vdd vdd vss vss gf180mcu_fd_sc_mcu7t5v0__fillcap_8
XFILLER_0_15_186 vdd vdd vss vss gf180mcu_fd_sc_mcu7t5v0__fill_1
XFILLER_0_15_142 vdd vdd vss vss gf180mcu_fd_sc_mcu7t5v0__fillcap_4
XFILLER_0_21_189 vdd vdd vss vss gf180mcu_fd_sc_mcu7t5v0__fill_2
Xhold22 mem_bottom_track_3.DFFR_1_.Q net81 vdd vdd vss vss gf180mcu_fd_sc_mcu7t5v0__dlyb_1
Xhold11 mem_right_track_2.DFFR_1_.Q net70 vdd vdd vss vss gf180mcu_fd_sc_mcu7t5v0__dlyb_1
Xhold33 mem_right_track_20.DFFR_0_.Q net92 vdd vdd vss vss gf180mcu_fd_sc_mcu7t5v0__dlyb_1
Xhold44 mem_bottom_track_23.DFFR_0_.Q net103 vdd vdd vss vss gf180mcu_fd_sc_mcu7t5v0__dlyb_1
XFILLER_0_16_43 vdd vdd vss vss gf180mcu_fd_sc_mcu7t5v0__fillcap_4
XFILLER_0_12_189 vdd vdd vss vss gf180mcu_fd_sc_mcu7t5v0__fill_2
XFILLER_0_25_2 vdd vdd vss vss gf180mcu_fd_sc_mcu7t5v0__fillcap_64
Xoutput34 net34 chany_bottom_out[8] vdd vdd vss vss gf180mcu_fd_sc_mcu7t5v0__buf_3
Xoutput23 net23 chanx_right_out[19] vdd vdd vss vss gf180mcu_fd_sc_mcu7t5v0__buf_3
XPHY_EDGE_ROW_11_Left_41 vdd vss gf180mcu_fd_sc_mcu7t5v0__endcap
XTAP_TAPCELL_ROW_18_118 vdd vss gf180mcu_fd_sc_mcu7t5v0__filltie
XFILLER_0_17_237 vdd vdd vss vss gf180mcu_fd_sc_mcu7t5v0__fill_2
XFILLER_0_4_164 vdd vdd vss vss gf180mcu_fd_sc_mcu7t5v0__fillcap_8
XFILLER_0_23_218 vdd vdd vss vss gf180mcu_fd_sc_mcu7t5v0__fill_1
XFILLER_0_13_22 vdd vdd vss vss gf180mcu_fd_sc_mcu7t5v0__fill_2
XTAP_TAPCELL_ROW_20_124 vdd vss gf180mcu_fd_sc_mcu7t5v0__filltie
XFILLER_0_1_112 vdd vdd vss vss gf180mcu_fd_sc_mcu7t5v0__fill_1
XFILLER_0_9_212 vdd vdd vss vss gf180mcu_fd_sc_mcu7t5v0__fillcap_8
XFILLER_0_4_53 vdd vdd vss vss gf180mcu_fd_sc_mcu7t5v0__fillcap_4
XFILLER_0_28_129 vdd vdd vss vss gf180mcu_fd_sc_mcu7t5v0__fill_1
X_187_ net2 net30 vdd vdd vss vss gf180mcu_fd_sc_mcu7t5v0__clkbuf_1
XTAP_TAPCELL_ROW_0_60 vdd vss gf180mcu_fd_sc_mcu7t5v0__filltie
XFILLER_0_10_45 vdd vdd vss vss gf180mcu_fd_sc_mcu7t5v0__fillcap_4
XTAP_TAPCELL_ROW_9_91 vdd vss gf180mcu_fd_sc_mcu7t5v0__filltie
X_110_ net95 _004_ clknet_2_0__leaf_prog_clk mem_right_track_4.DFFR_1_.Q vdd vdd vss
+ vss gf180mcu_fd_sc_mcu7t5v0__dffrnq_1
XFILLER_0_21_66 vdd vdd vss vss gf180mcu_fd_sc_mcu7t5v0__fillcap_4
Xhold45 mem_bottom_track_25.DFFR_0_.Q net104 vdd vdd vss vss gf180mcu_fd_sc_mcu7t5v0__dlyb_1
Xhold23 mem_bottom_track_1.DFFR_0_.Q net82 vdd vdd vss vss gf180mcu_fd_sc_mcu7t5v0__dlyb_1
Xhold34 mem_right_track_20.DFFR_1_.Q net93 vdd vdd vss vss gf180mcu_fd_sc_mcu7t5v0__dlyb_1
Xhold12 mem_right_track_8.DFFR_0_.Q net71 vdd vdd vss vss gf180mcu_fd_sc_mcu7t5v0__dlyb_1
Xclkbuf_2_3__f_prog_clk clknet_0_prog_clk clknet_2_3__leaf_prog_clk vdd vdd vss vss
+ gf180mcu_fd_sc_mcu7t5v0__clkbuf_16
XFILLER_0_8_107 vdd vdd vss vss gf180mcu_fd_sc_mcu7t5v0__fillcap_16
Xoutput24 net24 chanx_right_out[6] vdd vdd vss vss gf180mcu_fd_sc_mcu7t5v0__buf_3
Xoutput35 net35 chany_bottom_out[9] vdd vdd vss vss gf180mcu_fd_sc_mcu7t5v0__buf_3
XPHY_EDGE_ROW_28_Right_28 vdd vss gf180mcu_fd_sc_mcu7t5v0__endcap
XPHY_EDGE_ROW_19_Right_19 vdd vss gf180mcu_fd_sc_mcu7t5v0__endcap
XTAP_TAPCELL_ROW_18_119 vdd vss gf180mcu_fd_sc_mcu7t5v0__filltie
XFILLER_0_17_216 vdd vdd vss vss gf180mcu_fd_sc_mcu7t5v0__fill_2
XFILLER_0_4_132 vdd vdd vss vss gf180mcu_fd_sc_mcu7t5v0__fillcap_32
XFILLER_0_7_42 vdd vdd vss vss gf180mcu_fd_sc_mcu7t5v0__fillcap_8
XTAP_TAPCELL_ROW_23_133 vdd vss gf180mcu_fd_sc_mcu7t5v0__filltie
XFILLER_0_7_2 vdd vdd vss vss gf180mcu_fd_sc_mcu7t5v0__fillcap_4
XFILLER_0_1_146 vdd vdd vss vss gf180mcu_fd_sc_mcu7t5v0__fill_2
XFILLER_0_1_135 vdd vdd vss vss gf180mcu_fd_sc_mcu7t5v0__fillcap_4
XANTENNA_input1_I ccff_head vdd vdd vss vss gf180mcu_fd_sc_mcu7t5v0__antenna
XTAP_TAPCELL_ROW_20_125 vdd vss gf180mcu_fd_sc_mcu7t5v0__filltie
XANTENNA__123__CLK clknet_2_2__leaf_prog_clk vdd vdd vss vss gf180mcu_fd_sc_mcu7t5v0__antenna
X_186_ net6 net31 vdd vdd vss vss gf180mcu_fd_sc_mcu7t5v0__clkbuf_1
XFILLER_0_27_174 vdd vdd vss vss gf180mcu_fd_sc_mcu7t5v0__fillcap_4
XTAP_TAPCELL_ROW_0_61 vdd vss gf180mcu_fd_sc_mcu7t5v0__filltie
XTAP_TAPCELL_ROW_9_92 vdd vss gf180mcu_fd_sc_mcu7t5v0__filltie
XFILLER_0_18_185 vdd vdd vss vss gf180mcu_fd_sc_mcu7t5v0__fill_1
Xclkbuf_2_2__f_prog_clk clknet_0_prog_clk clknet_2_2__leaf_prog_clk vdd vdd vss vss
+ gf180mcu_fd_sc_mcu7t5v0__clkbuf_16
XFILLER_0_24_177 vdd vdd vss vss gf180mcu_fd_sc_mcu7t5v0__fillcap_32
Xhold13 mem_bottom_track_29.DFFR_1_.Q net72 vdd vdd vss vss gf180mcu_fd_sc_mcu7t5v0__dlyb_1
Xhold35 mem_bottom_track_1.DFFR_1_.Q net94 vdd vdd vss vss gf180mcu_fd_sc_mcu7t5v0__dlyb_1
Xhold46 mem_right_track_22.DFFR_1_.Q net105 vdd vdd vss vss gf180mcu_fd_sc_mcu7t5v0__dlyb_1
XFILLER_0_1_88 vdd vdd vss vss gf180mcu_fd_sc_mcu7t5v0__fillcap_8
XFILLER_0_1_66 vdd vdd vss vss gf180mcu_fd_sc_mcu7t5v0__fillcap_4
Xhold24 mem_right_track_0.DFFR_0_.Q net83 vdd vdd vss vss gf180mcu_fd_sc_mcu7t5v0__dlyb_1
XFILLER_0_21_114 vdd vdd vss vss gf180mcu_fd_sc_mcu7t5v0__fill_2
XTAP_TAPCELL_ROW_6_82 vdd vss gf180mcu_fd_sc_mcu7t5v0__filltie
XFILLER_0_12_103 vdd vdd vss vss gf180mcu_fd_sc_mcu7t5v0__fill_2
XTAP_TAPCELL_ROW_26_142 vdd vss gf180mcu_fd_sc_mcu7t5v0__filltie
XANTENNA__102__I _048_ vdd vdd vss vss gf180mcu_fd_sc_mcu7t5v0__antenna
Xoutput25 net25 chanx_right_out[7] vdd vdd vss vss gf180mcu_fd_sc_mcu7t5v0__buf_3
XFILLER_0_27_88 vdd vdd vss vss gf180mcu_fd_sc_mcu7t5v0__fillcap_8
XFILLER_0_27_66 vdd vdd vss vss gf180mcu_fd_sc_mcu7t5v0__fillcap_4
XFILLER_0_4_177 vdd vdd vss vss gf180mcu_fd_sc_mcu7t5v0__fill_2
XTAP_TAPCELL_ROW_23_134 vdd vss gf180mcu_fd_sc_mcu7t5v0__filltie
XFILLER_0_13_24 vdd vdd vss vss gf180mcu_fd_sc_mcu7t5v0__fill_1
XTAP_TAPCELL_ROW_20_126 vdd vss gf180mcu_fd_sc_mcu7t5v0__filltie
XFILLER_0_24_34 vdd vdd vss vss gf180mcu_fd_sc_mcu7t5v0__fill_1
XFILLER_0_4_99 vdd vdd vss vss gf180mcu_fd_sc_mcu7t5v0__fillcap_4
XFILLER_0_6_206 vdd vdd vss vss gf180mcu_fd_sc_mcu7t5v0__fill_1
X_185_ net13 net24 vdd vdd vss vss gf180mcu_fd_sc_mcu7t5v0__clkbuf_1
Xclkbuf_2_1__f_prog_clk clknet_0_prog_clk clknet_2_1__leaf_prog_clk vdd vdd vss vss
+ gf180mcu_fd_sc_mcu7t5v0__clkbuf_16
XFILLER_0_27_142 vdd vdd vss vss gf180mcu_fd_sc_mcu7t5v0__fillcap_32
XFILLER_0_19_67 vdd vdd vss vss gf180mcu_fd_sc_mcu7t5v0__fill_2
XTAP_TAPCELL_ROW_0_62 vdd vss gf180mcu_fd_sc_mcu7t5v0__filltie
XTAP_TAPCELL_ROW_9_93 vdd vss gf180mcu_fd_sc_mcu7t5v0__filltie
XANTENNA__105__I _048_ vdd vdd vss vss gf180mcu_fd_sc_mcu7t5v0__antenna
XPHY_EDGE_ROW_28_Left_58 vdd vss gf180mcu_fd_sc_mcu7t5v0__endcap
XFILLER_0_24_101 vdd vdd vss vss gf180mcu_fd_sc_mcu7t5v0__fillcap_4
X_099_ _048_ _041_ vdd vdd vss vss gf180mcu_fd_sc_mcu7t5v0__clkinv_2
Xhold14 mem_right_track_22.DFFR_0_.Q net73 vdd vdd vss vss gf180mcu_fd_sc_mcu7t5v0__dlyb_1
Xhold25 mem_right_track_10.DFFR_1_.Q net84 vdd vdd vss vss gf180mcu_fd_sc_mcu7t5v0__dlyb_1
Xhold36 mem_right_track_4.DFFR_0_.Q net95 vdd vdd vss vss gf180mcu_fd_sc_mcu7t5v0__dlyb_1
Xhold47 mem_right_track_24.DFFR_1_.Q net106 vdd vdd vss vss gf180mcu_fd_sc_mcu7t5v0__dlyb_1
XTAP_TAPCELL_ROW_29_151 vdd vss gf180mcu_fd_sc_mcu7t5v0__filltie
XFILLER_0_29_215 vdd vdd vss vss gf180mcu_fd_sc_mcu7t5v0__fillcap_4
XFILLER_0_12_115 vdd vdd vss vss gf180mcu_fd_sc_mcu7t5v0__fillcap_4
XTAP_TAPCELL_ROW_6_83 vdd vss gf180mcu_fd_sc_mcu7t5v0__filltie
XTAP_TAPCELL_ROW_26_143 vdd vss gf180mcu_fd_sc_mcu7t5v0__filltie
Xoutput26 net26 chanx_right_out[8] vdd vdd vss vss gf180mcu_fd_sc_mcu7t5v0__clkbuf_3
XPHY_EDGE_ROW_1_Right_1 vdd vss gf180mcu_fd_sc_mcu7t5v0__endcap
XFILLER_0_7_142 vdd vdd vss vss gf180mcu_fd_sc_mcu7t5v0__fill_2
XFILLER_0_7_186 vdd vdd vss vss gf180mcu_fd_sc_mcu7t5v0__fill_1
XPHY_EDGE_ROW_15_Left_45 vdd vss gf180mcu_fd_sc_mcu7t5v0__endcap
XTAP_TAPCELL_ROW_23_135 vdd vss gf180mcu_fd_sc_mcu7t5v0__filltie
XFILLER_0_23_2 vdd vdd vss vss gf180mcu_fd_sc_mcu7t5v0__fillcap_64
XFILLER_0_1_104 vdd vdd vss vss gf180mcu_fd_sc_mcu7t5v0__fillcap_8
XTAP_TAPCELL_ROW_3_73 vdd vss gf180mcu_fd_sc_mcu7t5v0__filltie
Xclkbuf_2_0__f_prog_clk clknet_0_prog_clk clknet_2_0__leaf_prog_clk vdd vdd vss vss
+ gf180mcu_fd_sc_mcu7t5v0__clkbuf_16
XFILLER_0_9_237 vdd vdd vss vss gf180mcu_fd_sc_mcu7t5v0__fill_2
XFILLER_0_4_34 vdd vdd vss vss gf180mcu_fd_sc_mcu7t5v0__fill_1
XFILLER_0_4_67 vdd vdd vss vss gf180mcu_fd_sc_mcu7t5v0__fillcap_32
X_184_ net12 net25 vdd vdd vss vss gf180mcu_fd_sc_mcu7t5v0__clkbuf_1
XTAP_TAPCELL_ROW_0_63 vdd vss gf180mcu_fd_sc_mcu7t5v0__filltie
XFILLER_0_10_37 vdd vdd vss vss gf180mcu_fd_sc_mcu7t5v0__fillcap_8
X_098_ _048_ _040_ vdd vdd vss vss gf180mcu_fd_sc_mcu7t5v0__clkinv_2
XPHY_EDGE_ROW_3_Left_33 vdd vss gf180mcu_fd_sc_mcu7t5v0__endcap
Xhold37 mem_bottom_track_21.DFFR_0_.Q net96 vdd vdd vss vss gf180mcu_fd_sc_mcu7t5v0__dlyb_1
Xhold15 mem_bottom_track_9.DFFR_0_.Q net74 vdd vdd vss vss gf180mcu_fd_sc_mcu7t5v0__dlyb_1
Xhold26 mem_bottom_track_3.DFFR_0_.Q net85 vdd vdd vss vss gf180mcu_fd_sc_mcu7t5v0__dlyb_1
XTAP_TAPCELL_ROW_10_94 vdd vss gf180mcu_fd_sc_mcu7t5v0__filltie
XTAP_TAPCELL_ROW_29_152 vdd vss gf180mcu_fd_sc_mcu7t5v0__filltie
XTAP_TAPCELL_ROW_6_84 vdd vss gf180mcu_fd_sc_mcu7t5v0__filltie
XTAP_TAPCELL_ROW_26_144 vdd vss gf180mcu_fd_sc_mcu7t5v0__filltie
Xoutput27 net27 chanx_right_out[9] vdd vdd vss vss gf180mcu_fd_sc_mcu7t5v0__buf_3
XPHY_EDGE_ROW_24_Right_24 vdd vss gf180mcu_fd_sc_mcu7t5v0__endcap
XFILLER_0_16_2 vdd vdd vss vss gf180mcu_fd_sc_mcu7t5v0__fillcap_16
XPHY_EDGE_ROW_15_Right_15 vdd vss gf180mcu_fd_sc_mcu7t5v0__endcap
XFILLER_0_4_179 vdd vdd vss vss gf180mcu_fd_sc_mcu7t5v0__fill_1
XFILLER_0_13_59 vdd vdd vss vss gf180mcu_fd_sc_mcu7t5v0__fillcap_4
XTAP_TAPCELL_ROW_3_74 vdd vss gf180mcu_fd_sc_mcu7t5v0__filltie
XFILLER_0_1_127 vdd vdd vss vss gf180mcu_fd_sc_mcu7t5v0__fillcap_8
X_183_ net11 net26 vdd vdd vss vss gf180mcu_fd_sc_mcu7t5v0__clkbuf_1
XFILLER_0_19_69 vdd vdd vss vss gf180mcu_fd_sc_mcu7t5v0__fill_1
XTAP_TAPCELL_ROW_0_64 vdd vss gf180mcu_fd_sc_mcu7t5v0__filltie
XFILLER_0_10_49 vdd vdd vss vss gf180mcu_fd_sc_mcu7t5v0__fill_2
XFILLER_0_27_100 vdd vdd vss vss gf180mcu_fd_sc_mcu7t5v0__fill_1
XFILLER_0_18_100 vdd vdd vss vss gf180mcu_fd_sc_mcu7t5v0__fillcap_4
XFILLER_0_18_177 vdd vdd vss vss gf180mcu_fd_sc_mcu7t5v0__fill_2
XFILLER_0_15_136 vdd vdd vss vss gf180mcu_fd_sc_mcu7t5v0__fillcap_4
X_097_ _052_ _039_ vdd vdd vss vss gf180mcu_fd_sc_mcu7t5v0__clkinv_2
Xhold16 mem_bottom_track_11.DFFR_0_.Q net75 vdd vdd vss vss gf180mcu_fd_sc_mcu7t5v0__dlyb_1
XFILLER_0_21_139 vdd vdd vss vss gf180mcu_fd_sc_mcu7t5v0__fill_1
XFILLER_0_21_106 vdd vdd vss vss gf180mcu_fd_sc_mcu7t5v0__fill_2
XANTENNA_input18_I pReset vdd vdd vss vss gf180mcu_fd_sc_mcu7t5v0__antenna
Xhold27 mem_bottom_track_23.DFFR_1_.Q net86 vdd vdd vss vss gf180mcu_fd_sc_mcu7t5v0__dlyb_1
Xhold38 mem_right_track_26.DFFR_1_.Q net97 vdd vdd vss vss gf180mcu_fd_sc_mcu7t5v0__dlyb_1
XTAP_TAPCELL_ROW_10_95 vdd vss gf180mcu_fd_sc_mcu7t5v0__filltie
XFILLER_0_29_206 vdd vdd vss vss gf180mcu_fd_sc_mcu7t5v0__fillcap_4
XTAP_TAPCELL_ROW_29_153 vdd vss gf180mcu_fd_sc_mcu7t5v0__filltie
X_149_ net67 _043_ clknet_2_1__leaf_prog_clk mem_bottom_track_27.DFFR_0_.Q vdd vdd
+ vss vss gf180mcu_fd_sc_mcu7t5v0__dffrnq_1
XFILLER_0_16_26 vdd vdd vss vss gf180mcu_fd_sc_mcu7t5v0__fill_2
Xoutput28 net28 chany_bottom_out[16] vdd vdd vss vss gf180mcu_fd_sc_mcu7t5v0__clkbuf_3
XFILLER_0_7_100 vdd vdd vss vss gf180mcu_fd_sc_mcu7t5v0__fill_1
XFILLER_0_26_209 vdd vdd vss vss gf180mcu_fd_sc_mcu7t5v0__fillcap_16
XFILLER_0_25_220 vdd vdd vss vss gf180mcu_fd_sc_mcu7t5v0__fillcap_4
XFILLER_0_17_209 vdd vdd vss vss gf180mcu_fd_sc_mcu7t5v0__fill_1
XFILLER_0_17_80 vdd vdd vss vss gf180mcu_fd_sc_mcu7t5v0__fill_1
XFILLER_0_4_103 vdd vdd vss vss gf180mcu_fd_sc_mcu7t5v0__fill_2
XFILLER_0_7_6 vdd vdd vss vss gf180mcu_fd_sc_mcu7t5v0__fill_2
XFILLER_0_13_201 vdd vdd vss vss gf180mcu_fd_sc_mcu7t5v0__fill_2
XFILLER_0_1_139 vdd vdd vss vss gf180mcu_fd_sc_mcu7t5v0__fill_1
XTAP_TAPCELL_ROW_3_75 vdd vss gf180mcu_fd_sc_mcu7t5v0__filltie
XFILLER_0_13_212 vdd vdd vss vss gf180mcu_fd_sc_mcu7t5v0__fillcap_4
XFILLER_0_0_172 vdd vdd vss vss gf180mcu_fd_sc_mcu7t5v0__fill_2
XFILLER_0_0_150 vdd vdd vss vss gf180mcu_fd_sc_mcu7t5v0__fill_1
XFILLER_0_24_37 vdd vdd vss vss gf180mcu_fd_sc_mcu7t5v0__fillcap_64
XANTENNA__116__CLK clknet_2_2__leaf_prog_clk vdd vdd vss vss gf180mcu_fd_sc_mcu7t5v0__antenna
XANTENNA__139__CLK clknet_2_3__leaf_prog_clk vdd vdd vss vss gf180mcu_fd_sc_mcu7t5v0__antenna
XFILLER_0_14_81 vdd vdd vss vss gf180mcu_fd_sc_mcu7t5v0__fillcap_8
XFILLER_0_5_220 vdd vdd vss vss gf180mcu_fd_sc_mcu7t5v0__fill_1
XTAP_TAPCELL_ROW_0_65 vdd vss gf180mcu_fd_sc_mcu7t5v0__filltie
X_182_ net17 net27 vdd vdd vss vss gf180mcu_fd_sc_mcu7t5v0__clkbuf_1
XFILLER_0_27_189 vdd vdd vss vss gf180mcu_fd_sc_mcu7t5v0__fillcap_16
XFILLER_0_27_178 vdd vdd vss vss gf180mcu_fd_sc_mcu7t5v0__fill_2
XFILLER_0_18_167 vdd vdd vss vss gf180mcu_fd_sc_mcu7t5v0__fill_2
X_096_ _052_ _038_ vdd vdd vss vss gf180mcu_fd_sc_mcu7t5v0__clkinv_2
Xhold17 mem_bottom_track_5.DFFR_1_.Q net76 vdd vdd vss vss gf180mcu_fd_sc_mcu7t5v0__dlyb_1
Xhold28 mem_bottom_track_1.DFFR_0_.D net87 vdd vdd vss vss gf180mcu_fd_sc_mcu7t5v0__dlyb_1
Xhold39 mem_right_track_24.DFFR_0_.Q net98 vdd vdd vss vss gf180mcu_fd_sc_mcu7t5v0__dlyb_1
XTAP_TAPCELL_ROW_10_96 vdd vss gf180mcu_fd_sc_mcu7t5v0__filltie
XTAP_TAPCELL_ROW_29_154 vdd vss gf180mcu_fd_sc_mcu7t5v0__filltie
XFILLER_0_21_118 vdd vdd vss vss gf180mcu_fd_sc_mcu7t5v0__fillcap_4
XFILLER_0_14_170 vdd vdd vss vss gf180mcu_fd_sc_mcu7t5v0__fill_2
X_148_ net62 _042_ clknet_2_3__leaf_prog_clk mem_bottom_track_27.DFFR_1_.Q vdd vdd
+ vss vss gf180mcu_fd_sc_mcu7t5v0__dffrnq_1
XFILLER_0_12_107 vdd vdd vss vss gf180mcu_fd_sc_mcu7t5v0__fillcap_8
Xoutput29 net29 chany_bottom_out[17] vdd vdd vss vss gf180mcu_fd_sc_mcu7t5v0__buf_3
X_079_ _051_ _022_ vdd vdd vss vss gf180mcu_fd_sc_mcu7t5v0__clkinv_2
XFILLER_0_7_178 vdd vdd vss vss gf180mcu_fd_sc_mcu7t5v0__fill_2
XFILLER_0_4_115 vdd vdd vss vss gf180mcu_fd_sc_mcu7t5v0__fill_1
XFILLER_0_3_170 vdd vdd vss vss gf180mcu_fd_sc_mcu7t5v0__fill_1
XPHY_EDGE_ROW_5_Right_5 vdd vss gf180mcu_fd_sc_mcu7t5v0__endcap
XPHY_EDGE_ROW_19_Left_49 vdd vss gf180mcu_fd_sc_mcu7t5v0__endcap
XFILLER_0_21_2 vdd vdd vss vss gf180mcu_fd_sc_mcu7t5v0__fillcap_64
XFILLER_0_4_37 vdd vdd vss vss gf180mcu_fd_sc_mcu7t5v0__fillcap_16
X_181_ net16 net20 vdd vdd vss vss gf180mcu_fd_sc_mcu7t5v0__clkbuf_1
XFILLER_0_10_18 vdd vdd vss vss gf180mcu_fd_sc_mcu7t5v0__fill_1
XTAP_TAPCELL_ROW_0_66 vdd vss gf180mcu_fd_sc_mcu7t5v0__filltie
XANTENNA__061__I _049_ vdd vdd vss vss gf180mcu_fd_sc_mcu7t5v0__antenna
X_095_ _052_ _037_ vdd vdd vss vss gf180mcu_fd_sc_mcu7t5v0__clkinv_2
Xhold29 mem_bottom_track_11.DFFR_1_.Q net88 vdd vdd vss vss gf180mcu_fd_sc_mcu7t5v0__dlyb_1
Xhold18 mem_bottom_track_27.DFFR_1_.Q net77 vdd vdd vss vss gf180mcu_fd_sc_mcu7t5v0__dlyb_1
XANTENNA__129__CLK clknet_2_3__leaf_prog_clk vdd vdd vss vss gf180mcu_fd_sc_mcu7t5v0__antenna
XANTENNA__056__I _049_ vdd vdd vss vss gf180mcu_fd_sc_mcu7t5v0__antenna
XFILLER_0_29_219 vdd vdd vss vss gf180mcu_fd_sc_mcu7t5v0__fill_1
XTAP_TAPCELL_ROW_29_155 vdd vss gf180mcu_fd_sc_mcu7t5v0__filltie
XFILLER_0_16_28 vdd vdd vss vss gf180mcu_fd_sc_mcu7t5v0__fill_1
XPHY_EDGE_ROW_7_Left_37 vdd vss gf180mcu_fd_sc_mcu7t5v0__endcap
XFILLER_0_20_174 vdd vdd vss vss gf180mcu_fd_sc_mcu7t5v0__fill_1
XFILLER_0_20_141 vdd vdd vss vss gf180mcu_fd_sc_mcu7t5v0__fillcap_8
X_147_ net86 _041_ clknet_2_3__leaf_prog_clk mem_bottom_track_25.DFFR_0_.Q vdd vdd
+ vss vss gf180mcu_fd_sc_mcu7t5v0__dffrnq_1
XFILLER_0_7_135 vdd vdd vss vss gf180mcu_fd_sc_mcu7t5v0__fillcap_4
X_078_ _051_ _021_ vdd vdd vss vss gf180mcu_fd_sc_mcu7t5v0__clkinv_2
XFILLER_0_12_119 vdd vdd vss vss gf180mcu_fd_sc_mcu7t5v0__fill_1
Xoutput19 net19 ccff_tail vdd vdd vss vss gf180mcu_fd_sc_mcu7t5v0__buf_3
XPHY_EDGE_ROW_20_Right_20 vdd vss gf180mcu_fd_sc_mcu7t5v0__endcap
XTAP_TAPCELL_ROW_14_106 vdd vss gf180mcu_fd_sc_mcu7t5v0__filltie
XFILLER_0_13_18 vdd vdd vss vss gf180mcu_fd_sc_mcu7t5v0__fillcap_4
XPHY_EDGE_ROW_11_Right_11 vdd vss gf180mcu_fd_sc_mcu7t5v0__endcap
XFILLER_0_28_81 vdd vdd vss vss gf180mcu_fd_sc_mcu7t5v0__fill_2
XFILLER_0_14_2 vdd vdd vss vss gf180mcu_fd_sc_mcu7t5v0__fillcap_8
XFILLER_0_0_185 vdd vdd vss vss gf180mcu_fd_sc_mcu7t5v0__fill_2
XFILLER_0_0_174 vdd vdd vss vss gf180mcu_fd_sc_mcu7t5v0__fill_1
XFILLER_0_0_163 vdd vdd vss vss gf180mcu_fd_sc_mcu7t5v0__fill_1
XANTENNA__064__I _049_ vdd vdd vss vss gf180mcu_fd_sc_mcu7t5v0__antenna
XANTENNA__059__I _049_ vdd vdd vss vss gf180mcu_fd_sc_mcu7t5v0__antenna
XFILLER_0_10_239 vdd vdd vss vss gf180mcu_fd_sc_mcu7t5v0__fill_2
X_180_ net15 net21 vdd vdd vss vss gf180mcu_fd_sc_mcu7t5v0__clkbuf_1
XFILLER_0_3_2 vdd vdd vss vss gf180mcu_fd_sc_mcu7t5v0__fillcap_64
X_094_ _052_ _036_ vdd vdd vss vss gf180mcu_fd_sc_mcu7t5v0__clkinv_2
XPHY_EDGE_ROW_23_Left_53 vdd vss gf180mcu_fd_sc_mcu7t5v0__endcap
Xhold19 mem_right_track_4.DFFR_1_.Q net78 vdd vdd vss vss gf180mcu_fd_sc_mcu7t5v0__dlyb_1
XTAP_TAPCELL_ROW_29_156 vdd vss gf180mcu_fd_sc_mcu7t5v0__filltie
XFILLER_0_16_18 vdd vdd vss vss gf180mcu_fd_sc_mcu7t5v0__fillcap_8
XFILLER_0_14_172 vdd vdd vss vss gf180mcu_fd_sc_mcu7t5v0__fill_1
XFILLER_0_14_161 vdd vdd vss vss gf180mcu_fd_sc_mcu7t5v0__fill_2
X_146_ net104 _040_ clknet_2_1__leaf_prog_clk mem_bottom_track_25.DFFR_1_.Q vdd vdd