* NGSPICE file created from sb_0__1_.ext - technology: gf180mcuD

* Black-box entry subcircuit for gf180mcu_fd_sc_mcu7t5v0__fillcap_8 abstract view
.subckt gf180mcu_fd_sc_mcu7t5v0__fillcap_8 VDD VNW VPW VSS
.ends

* Black-box entry subcircuit for gf180mcu_fd_sc_mcu7t5v0__fill_2 abstract view
.subckt gf180mcu_fd_sc_mcu7t5v0__fill_2 VDD VNW VPW VSS
.ends

* Black-box entry subcircuit for gf180mcu_fd_sc_mcu7t5v0__dffrnq_1 abstract view
.subckt gf180mcu_fd_sc_mcu7t5v0__dffrnq_1 D RN CLK Q VDD VNW VPW VSS
.ends

* Black-box entry subcircuit for gf180mcu_fd_sc_mcu7t5v0__antenna abstract view
.subckt gf180mcu_fd_sc_mcu7t5v0__antenna I VDD VNW VPW VSS
.ends

* Black-box entry subcircuit for gf180mcu_fd_sc_mcu7t5v0__filltie abstract view
.subckt gf180mcu_fd_sc_mcu7t5v0__filltie VDD VSS
.ends

* Black-box entry subcircuit for gf180mcu_fd_sc_mcu7t5v0__fillcap_4 abstract view
.subckt gf180mcu_fd_sc_mcu7t5v0__fillcap_4 VDD VNW VPW VSS
.ends

* Black-box entry subcircuit for gf180mcu_fd_sc_mcu7t5v0__fill_1 abstract view
.subckt gf180mcu_fd_sc_mcu7t5v0__fill_1 VDD VNW VPW VSS
.ends

* Black-box entry subcircuit for gf180mcu_fd_sc_mcu7t5v0__clkinv_2 abstract view
.subckt gf180mcu_fd_sc_mcu7t5v0__clkinv_2 I ZN VDD VNW VPW VSS
.ends

* Black-box entry subcircuit for gf180mcu_fd_sc_mcu7t5v0__buf_12 abstract view
.subckt gf180mcu_fd_sc_mcu7t5v0__buf_12 I Z VDD VNW VPW VSS
.ends

* Black-box entry subcircuit for gf180mcu_fd_sc_mcu7t5v0__endcap abstract view
.subckt gf180mcu_fd_sc_mcu7t5v0__endcap VDD VSS
.ends

* Black-box entry subcircuit for gf180mcu_fd_sc_mcu7t5v0__dlyb_1 abstract view
.subckt gf180mcu_fd_sc_mcu7t5v0__dlyb_1 I Z VDD VNW VPW VSS
.ends

* Black-box entry subcircuit for gf180mcu_fd_sc_mcu7t5v0__buf_3 abstract view
.subckt gf180mcu_fd_sc_mcu7t5v0__buf_3 I Z VDD VNW VPW VSS
.ends

* Black-box entry subcircuit for gf180mcu_fd_sc_mcu7t5v0__clkbuf_4 abstract view
.subckt gf180mcu_fd_sc_mcu7t5v0__clkbuf_4 I Z VDD VNW VPW VSS
.ends

* Black-box entry subcircuit for gf180mcu_fd_sc_mcu7t5v0__clkinv_4 abstract view
.subckt gf180mcu_fd_sc_mcu7t5v0__clkinv_4 I ZN VDD VNW VPW VSS
.ends

* Black-box entry subcircuit for gf180mcu_fd_sc_mcu7t5v0__buf_4 abstract view
.subckt gf180mcu_fd_sc_mcu7t5v0__buf_4 I Z VDD VNW VPW VSS
.ends

* Black-box entry subcircuit for gf180mcu_fd_sc_mcu7t5v0__clkbuf_3 abstract view
.subckt gf180mcu_fd_sc_mcu7t5v0__clkbuf_3 I Z VDD VNW VPW VSS
.ends

* Black-box entry subcircuit for gf180mcu_fd_sc_mcu7t5v0__clkbuf_1 abstract view
.subckt gf180mcu_fd_sc_mcu7t5v0__clkbuf_1 I Z VDD VNW VPW VSS
.ends

* Black-box entry subcircuit for gf180mcu_fd_sc_mcu7t5v0__fillcap_16 abstract view
.subckt gf180mcu_fd_sc_mcu7t5v0__fillcap_16 VDD VNW VPW VSS
.ends

* Black-box entry subcircuit for gf180mcu_fd_sc_mcu7t5v0__clkbuf_16 abstract view
.subckt gf180mcu_fd_sc_mcu7t5v0__clkbuf_16 I Z VDD VNW VPW VSS
.ends

* Black-box entry subcircuit for gf180mcu_fd_sc_mcu7t5v0__tiel abstract view
.subckt gf180mcu_fd_sc_mcu7t5v0__tiel ZN VDD VNW VPW VSS
.ends

* Black-box entry subcircuit for gf180mcu_fd_sc_mcu7t5v0__buf_1 abstract view
.subckt gf180mcu_fd_sc_mcu7t5v0__buf_1 I Z VDD VNW VPW VSS
.ends

* Black-box entry subcircuit for gf180mcu_fd_sc_mcu7t5v0__buf_8 abstract view
.subckt gf180mcu_fd_sc_mcu7t5v0__buf_8 I Z VDD VNW VPW VSS
.ends

.subckt sb_0__1_ bottom_left_grid_right_width_0_height_0_subtile_0__pin_inpad_0_ bottom_left_grid_right_width_0_height_0_subtile_1__pin_inpad_0_
+ bottom_left_grid_right_width_0_height_0_subtile_2__pin_inpad_0_ bottom_left_grid_right_width_0_height_0_subtile_3__pin_inpad_0_
+ bottom_right_grid_left_width_0_height_0_subtile_0__pin_O_3_ bottom_right_grid_left_width_0_height_0_subtile_0__pin_O_7_
+ ccff_head ccff_tail chanx_right_in[0] chanx_right_in[10] chanx_right_in[11] chanx_right_in[12]
+ chanx_right_in[13] chanx_right_in[14] chanx_right_in[15] chanx_right_in[16] chanx_right_in[17]
+ chanx_right_in[18] chanx_right_in[19] chanx_right_in[1] chanx_right_in[2] chanx_right_in[3]
+ chanx_right_in[4] chanx_right_in[5] chanx_right_in[6] chanx_right_in[7] chanx_right_in[8]
+ chanx_right_in[9] chanx_right_out[15] chanx_right_out[16] chanx_right_out[17] chanx_right_out[18]
+ chanx_right_out[8] chanx_right_out[9] chany_bottom_in[0] chany_bottom_in[10] chany_bottom_in[11]
+ chany_bottom_in[12] chany_bottom_in[13] chany_bottom_in[14] chany_bottom_in[15]
+ chany_bottom_in[16] chany_bottom_in[17] chany_bottom_in[18] chany_bottom_in[19]
+ chany_bottom_in[1] chany_bottom_in[2] chany_bottom_in[3] chany_bottom_in[4] chany_bottom_in[5]
+ chany_bottom_in[6] chany_bottom_in[7] chany_bottom_in[8] chany_bottom_in[9] chany_bottom_out[10]
+ chany_bottom_out[11] chany_bottom_out[13] chany_bottom_out[14] chany_bottom_out[15]
+ chany_bottom_out[17] chany_bottom_out[18] chany_bottom_out[19] chany_bottom_out[1]
+ chany_bottom_out[2] chany_bottom_out[3] chany_bottom_out[5] chany_bottom_out[6]
+ chany_bottom_out[7] chany_bottom_out[9] chany_top_in[0] chany_top_in[10] chany_top_in[11]
+ chany_top_in[12] chany_top_in[13] chany_top_in[14] chany_top_in[15] chany_top_in[16]
+ chany_top_in[17] chany_top_in[18] chany_top_in[19] chany_top_in[1] chany_top_in[2]
+ chany_top_in[3] chany_top_in[4] chany_top_in[5] chany_top_in[6] chany_top_in[7]
+ chany_top_in[8] chany_top_in[9] chany_top_out[10] chany_top_out[11] chany_top_out[12]
+ chany_top_out[13] chany_top_out[14] chany_top_out[15] chany_top_out[17] chany_top_out[18]
+ chany_top_out[19] chany_top_out[1] chany_top_out[2] chany_top_out[3] chany_top_out[5]
+ chany_top_out[6] chany_top_out[7] chany_top_out[9] pReset prog_clk right_bottom_grid_top_width_0_height_0_subtile_0__pin_O_0_
+ right_bottom_grid_top_width_0_height_0_subtile_0__pin_O_4_ right_top_grid_bottom_width_0_height_0_subtile_0__pin_O_2_
+ right_top_grid_bottom_width_0_height_0_subtile_0__pin_O_6_ top_left_grid_right_width_0_height_0_subtile_0__pin_inpad_0_
+ top_left_grid_right_width_0_height_0_subtile_1__pin_inpad_0_ top_left_grid_right_width_0_height_0_subtile_2__pin_inpad_0_
+ top_left_grid_right_width_0_height_0_subtile_3__pin_inpad_0_ top_right_grid_left_width_0_height_0_subtile_0__pin_O_3_
+ top_right_grid_left_width_0_height_0_subtile_0__pin_O_7_ vdd vss chany_bottom_out[8]
+ chany_bottom_out[12] chany_bottom_out[16] chanx_right_out[10] chany_top_out[0] chanx_right_out[0]
+ chanx_right_out[11] chany_top_out[4] chany_top_out[8] chanx_right_out[1] chanx_right_out[12]
+ chanx_right_out[13] chanx_right_out[2] chanx_right_out[14] chany_top_out[16] chanx_right_out[3]
+ chanx_right_out[4] chanx_right_out[19] chany_bottom_out[0] chanx_right_out[5] chany_bottom_out[4]
+ chanx_right_out[6] chanx_right_out[7]
XFILLER_0_32_247 vdd vdd vss vss gf180mcu_fd_sc_mcu7t5v0__fillcap_8
XFILLER_0_27_82 vdd vdd vss vss gf180mcu_fd_sc_mcu7t5v0__fill_2
X_294_ net192 _058_ clknet_3_7__leaf_prog_clk net37 vdd vdd vss vss gf180mcu_fd_sc_mcu7t5v0__dffrnq_1
XANTENNA__164__I _106_ vdd vdd vss vss gf180mcu_fd_sc_mcu7t5v0__antenna
XTAP_TAPCELL_ROW_15_128 vdd vss gf180mcu_fd_sc_mcu7t5v0__filltie
XFILLER_0_14_247 vdd vdd vss vss gf180mcu_fd_sc_mcu7t5v0__fillcap_4
XANTENNA__159__I _111_ vdd vdd vss vss gf180mcu_fd_sc_mcu7t5v0__antenna
X_277_ net182 _041_ clknet_3_4__leaf_prog_clk mem_bottom_track_9.DFFR_4_.Q vdd vdd
+ vss vss gf180mcu_fd_sc_mcu7t5v0__dffrnq_1
XFILLER_0_6_255 vdd vdd vss vss gf180mcu_fd_sc_mcu7t5v0__fill_1
XANTENNA_input36_I pReset vdd vdd vss vss gf180mcu_fd_sc_mcu7t5v0__antenna
X_200_ _115_ _072_ vdd vdd vss vss gf180mcu_fd_sc_mcu7t5v0__clkinv_2
XFILLER_0_10_272 vdd vdd vss vss gf180mcu_fd_sc_mcu7t5v0__fill_2
X_131_ _107_ _109_ vdd vdd vss vss gf180mcu_fd_sc_mcu7t5v0__buf_12
XFILLER_0_4_82 vdd vdd vss vss gf180mcu_fd_sc_mcu7t5v0__fill_2
XFILLER_0_28_158 vdd vdd vss vss gf180mcu_fd_sc_mcu7t5v0__fill_1
X_329_ net114 _093_ clknet_3_3__leaf_prog_clk mem_right_track_6.DFFR_4_.Q vdd vdd
+ vss vss gf180mcu_fd_sc_mcu7t5v0__dffrnq_1
XFILLER_0_10_30 vdd vdd vss vss gf180mcu_fd_sc_mcu7t5v0__fill_2
XFILLER_0_3_236 vdd vdd vss vss gf180mcu_fd_sc_mcu7t5v0__fillcap_4
XFILLER_0_31_18 vdd vdd vss vss gf180mcu_fd_sc_mcu7t5v0__fillcap_8
XFILLER_0_25_139 vdd vdd vss vss gf180mcu_fd_sc_mcu7t5v0__fill_1
XPHY_EDGE_ROW_28_Left_63 vdd vss gf180mcu_fd_sc_mcu7t5v0__endcap
XFILLER_0_27_2 vdd vdd vss vss gf180mcu_fd_sc_mcu7t5v0__fill_2
XPHY_EDGE_ROW_12_Left_47 vdd vss gf180mcu_fd_sc_mcu7t5v0__endcap
Xhold52 mem_right_track_2.DFFR_3_.Q net149 vdd vdd vss vss gf180mcu_fd_sc_mcu7t5v0__dlyb_1
Xhold63 mem_right_track_2.DFFR_2_.Q net160 vdd vdd vss vss gf180mcu_fd_sc_mcu7t5v0__dlyb_1
Xhold30 mem_bottom_track_33.DFFR_0_.Q net127 vdd vdd vss vss gf180mcu_fd_sc_mcu7t5v0__dlyb_1
Xhold85 mem_bottom_track_9.DFFR_3_.Q net182 vdd vdd vss vss gf180mcu_fd_sc_mcu7t5v0__dlyb_1
Xhold74 mem_top_track_32.DFFR_1_.Q net171 vdd vdd vss vss gf180mcu_fd_sc_mcu7t5v0__dlyb_1
XFILLER_0_1_72 vdd vdd vss vss gf180mcu_fd_sc_mcu7t5v0__fill_2
XFILLER_0_1_61 vdd vdd vss vss gf180mcu_fd_sc_mcu7t5v0__fill_2
Xhold41 mem_top_track_0.DFFR_2_.Q net138 vdd vdd vss vss gf180mcu_fd_sc_mcu7t5v0__dlyb_1
Xhold96 mem_bottom_track_1.DFFR_2_.Q net193 vdd vdd vss vss gf180mcu_fd_sc_mcu7t5v0__dlyb_1
XFILLER_0_29_220 vdd vdd vss vss gf180mcu_fd_sc_mcu7t5v0__fill_1
XFILLER_0_21_142 vdd vdd vss vss gf180mcu_fd_sc_mcu7t5v0__fill_2
XFILLER_0_21_131 vdd vdd vss vss gf180mcu_fd_sc_mcu7t5v0__fill_2
XANTENNA__247__CLK clknet_3_0__leaf_prog_clk vdd vdd vss vss gf180mcu_fd_sc_mcu7t5v0__antenna
XFILLER_0_12_131 vdd vdd vss vss gf180mcu_fd_sc_mcu7t5v0__fill_1
XFILLER_0_7_191 vdd vdd vss vss gf180mcu_fd_sc_mcu7t5v0__fill_1
Xoutput42 net42 chany_bottom_out[10] vdd vdd vss vss gf180mcu_fd_sc_mcu7t5v0__buf_3
XANTENNA_clkbuf_3_7__f_prog_clk_I clknet_0_prog_clk vdd vdd vss vss gf180mcu_fd_sc_mcu7t5v0__antenna
Xoutput64 net64 chany_top_out[19] vdd vdd vss vss gf180mcu_fd_sc_mcu7t5v0__clkbuf_4
XTAP_TAPCELL_ROW_18_137 vdd vss gf180mcu_fd_sc_mcu7t5v0__filltie
Xoutput53 net53 chany_bottom_out[5] vdd vdd vss vss gf180mcu_fd_sc_mcu7t5v0__buf_3
XPHY_EDGE_ROW_15_Left_50 vdd vss gf180mcu_fd_sc_mcu7t5v0__endcap
XFILLER_0_7_82 vdd vdd vss vss gf180mcu_fd_sc_mcu7t5v0__fill_2
X_293_ net115 _057_ clknet_3_7__leaf_prog_clk mem_bottom_track_25.DFFR_0_.Q vdd vdd
+ vss vss gf180mcu_fd_sc_mcu7t5v0__dffrnq_1
XANTENNA__180__I _113_ vdd vdd vss vss gf180mcu_fd_sc_mcu7t5v0__antenna
XTAP_TAPCELL_ROW_15_129 vdd vss gf180mcu_fd_sc_mcu7t5v0__filltie
XFILLER_0_14_226 vdd vdd vss vss gf180mcu_fd_sc_mcu7t5v0__fill_1
XFILLER_0_13_96 vdd vdd vss vss gf180mcu_fd_sc_mcu7t5v0__fill_2
XFILLER_0_1_142 vdd vdd vss vss gf180mcu_fd_sc_mcu7t5v0__fill_2
XANTENNA__308__CLK clknet_3_0__leaf_prog_clk vdd vdd vss vss gf180mcu_fd_sc_mcu7t5v0__antenna
XPHY_EDGE_ROW_0_Left_35 vdd vss gf180mcu_fd_sc_mcu7t5v0__endcap
XANTENNA__175__I _106_ vdd vdd vss vss gf180mcu_fd_sc_mcu7t5v0__antenna
X_276_ net102 _040_ clknet_3_5__leaf_prog_clk mem_bottom_track_17.DFFR_0_.D vdd vdd
+ vss vss gf180mcu_fd_sc_mcu7t5v0__dffrnq_1
XFILLER_0_11_207 vdd vdd vss vss gf180mcu_fd_sc_mcu7t5v0__fill_2
XPHY_EDGE_ROW_21_Right_21 vdd vss gf180mcu_fd_sc_mcu7t5v0__endcap
XPHY_EDGE_ROW_12_Right_12 vdd vss gf180mcu_fd_sc_mcu7t5v0__endcap
X_130_ _108_ _009_ vdd vdd vss vss gf180mcu_fd_sc_mcu7t5v0__clkinv_4
XFILLER_0_10_251 vdd vdd vss vss gf180mcu_fd_sc_mcu7t5v0__fillcap_4
XANTENNA_input29_I chany_top_in[1] vdd vdd vss vss gf180mcu_fd_sc_mcu7t5v0__antenna
XPHY_EDGE_ROW_30_Right_30 vdd vss gf180mcu_fd_sc_mcu7t5v0__endcap
XFILLER_0_28_126 vdd vdd vss vss gf180mcu_fd_sc_mcu7t5v0__fillcap_8
XFILLER_0_28_104 vdd vdd vss vss gf180mcu_fd_sc_mcu7t5v0__fill_1
X_328_ net140 _092_ clknet_3_3__leaf_prog_clk mem_right_track_6.DFFR_5_.Q vdd vdd
+ vss vss gf180mcu_fd_sc_mcu7t5v0__dffrnq_1
XANTENNA__280__CLK clknet_3_1__leaf_prog_clk vdd vdd vss vss gf180mcu_fd_sc_mcu7t5v0__antenna
X_259_ net117 _023_ clknet_3_4__leaf_prog_clk mem_top_track_16.DFFR_4_.Q vdd vdd vss
+ vss gf180mcu_fd_sc_mcu7t5v0__dffrnq_1
XFILLER_0_19_148 vdd vdd vss vss gf180mcu_fd_sc_mcu7t5v0__fill_2
XFILLER_0_18_170 vdd vdd vss vss gf180mcu_fd_sc_mcu7t5v0__fill_2
XFILLER_0_16_107 vdd vdd vss vss gf180mcu_fd_sc_mcu7t5v0__fill_2
Xhold75 mem_right_track_10.DFFR_0_.D net172 vdd vdd vss vss gf180mcu_fd_sc_mcu7t5v0__dlyb_1
Xhold86 mem_bottom_track_33.DFFR_3_.Q net183 vdd vdd vss vss gf180mcu_fd_sc_mcu7t5v0__dlyb_1
Xhold53 mem_bottom_track_17.DFFR_3_.Q net150 vdd vdd vss vss gf180mcu_fd_sc_mcu7t5v0__dlyb_1
Xhold42 mem_bottom_track_1.DFFR_6_.Q net139 vdd vdd vss vss gf180mcu_fd_sc_mcu7t5v0__dlyb_1
Xhold64 mem_top_track_0.DFFR_5_.Q net161 vdd vdd vss vss gf180mcu_fd_sc_mcu7t5v0__dlyb_1
Xhold31 mem_top_track_16.DFFR_4_.Q net128 vdd vdd vss vss gf180mcu_fd_sc_mcu7t5v0__dlyb_1
Xhold97 mem_top_track_32.DFFR_3_.Q net194 vdd vdd vss vss gf180mcu_fd_sc_mcu7t5v0__dlyb_1
Xhold20 mem_top_track_16.DFFR_3_.Q net117 vdd vdd vss vss gf180mcu_fd_sc_mcu7t5v0__dlyb_1
XANTENNA__183__I _113_ vdd vdd vss vss gf180mcu_fd_sc_mcu7t5v0__antenna
XANTENNA_input11_I chany_bottom_in[18] vdd vdd vss vss gf180mcu_fd_sc_mcu7t5v0__antenna
XPHY_EDGE_ROW_6_Right_6 vdd vss gf180mcu_fd_sc_mcu7t5v0__endcap
XFILLER_0_8_104 vdd vdd vss vss gf180mcu_fd_sc_mcu7t5v0__fill_1
Xoutput65 net65 chany_top_out[1] vdd vdd vss vss gf180mcu_fd_sc_mcu7t5v0__buf_3
Xoutput54 net54 chany_bottom_out[6] vdd vdd vss vss gf180mcu_fd_sc_mcu7t5v0__buf_3
XANTENNA__178__I _113_ vdd vdd vss vss gf180mcu_fd_sc_mcu7t5v0__antenna
XTAP_TAPCELL_ROW_18_138 vdd vss gf180mcu_fd_sc_mcu7t5v0__filltie
Xoutput43 net43 chany_bottom_out[11] vdd vdd vss vss gf180mcu_fd_sc_mcu7t5v0__buf_3
XFILLER_0_17_246 vdd vdd vss vss gf180mcu_fd_sc_mcu7t5v0__fill_2
XANTENNA_input3_I chany_bottom_in[10] vdd vdd vss vss gf180mcu_fd_sc_mcu7t5v0__antenna
X_292_ net157 _056_ clknet_3_7__leaf_prog_clk mem_bottom_track_25.DFFR_1_.Q vdd vdd
+ vss vss gf180mcu_fd_sc_mcu7t5v0__dffrnq_1
XTAP_TAPCELL_ROW_9_106 vdd vss gf180mcu_fd_sc_mcu7t5v0__filltie
XANTENNA__237__CLK clknet_3_1__leaf_prog_clk vdd vdd vss vss gf180mcu_fd_sc_mcu7t5v0__antenna
XFILLER_0_4_184 vdd vdd vss vss gf180mcu_fd_sc_mcu7t5v0__fill_2
XFILLER_0_22_271 vdd vdd vss vss gf180mcu_fd_sc_mcu7t5v0__fillcap_4
XFILLER_0_1_187 vdd vdd vss vss gf180mcu_fd_sc_mcu7t5v0__fill_2
XTAP_TAPCELL_ROW_20_144 vdd vss gf180mcu_fd_sc_mcu7t5v0__filltie
XANTENNA_output42_I net42 vdd vdd vss vss gf180mcu_fd_sc_mcu7t5v0__antenna
X_275_ net130 _039_ clknet_3_4__leaf_prog_clk mem_top_track_32.DFFR_0_.Q vdd vdd vss
+ vss gf180mcu_fd_sc_mcu7t5v0__dffrnq_1
XFILLER_0_24_30 vdd vdd vss vss gf180mcu_fd_sc_mcu7t5v0__fill_2
XANTENNA__186__I _106_ vdd vdd vss vss gf180mcu_fd_sc_mcu7t5v0__antenna
XFILLER_0_34_119 vdd vdd vss vss gf180mcu_fd_sc_mcu7t5v0__fill_1
X_327_ net188 _091_ clknet_3_3__leaf_prog_clk mem_right_track_4.DFFR_0_.Q vdd vdd
+ vss vss gf180mcu_fd_sc_mcu7t5v0__dffrnq_1
X_189_ _114_ _062_ vdd vdd vss vss gf180mcu_fd_sc_mcu7t5v0__clkinv_2
XFILLER_0_19_63 vdd vdd vss vss gf180mcu_fd_sc_mcu7t5v0__fillcap_4
XFILLER_0_10_32 vdd vdd vss vss gf180mcu_fd_sc_mcu7t5v0__fill_1
X_258_ net128 _022_ clknet_3_4__leaf_prog_clk mem_top_track_16.DFFR_5_.Q vdd vdd vss
+ vss gf180mcu_fd_sc_mcu7t5v0__dffrnq_1
XFILLER_0_33_152 vdd vdd vss vss gf180mcu_fd_sc_mcu7t5v0__fillcap_4
XANTENNA__270__CLK clknet_3_5__leaf_prog_clk vdd vdd vss vss gf180mcu_fd_sc_mcu7t5v0__antenna
XFILLER_0_1_96 vdd vdd vss vss gf180mcu_fd_sc_mcu7t5v0__fill_2
XFILLER_0_1_74 vdd vdd vss vss gf180mcu_fd_sc_mcu7t5v0__fill_1
Xhold98 mem_bottom_track_25.DFFR_4_.Q net195 vdd vdd vss vss gf180mcu_fd_sc_mcu7t5v0__dlyb_1
Xhold43 mem_right_track_6.DFFR_4_.Q net140 vdd vdd vss vss gf180mcu_fd_sc_mcu7t5v0__dlyb_1
Xhold21 mem_bottom_track_33.DFFR_1_.Q net118 vdd vdd vss vss gf180mcu_fd_sc_mcu7t5v0__dlyb_1
Xhold10 mem_right_track_8.DFFR_0_.Q net107 vdd vdd vss vss gf180mcu_fd_sc_mcu7t5v0__dlyb_1
XFILLER_0_21_133 vdd vdd vss vss gf180mcu_fd_sc_mcu7t5v0__fill_1
Xhold76 mem_bottom_track_17.DFFR_0_.D net173 vdd vdd vss vss gf180mcu_fd_sc_mcu7t5v0__dlyb_1
Xhold32 mem_bottom_track_1.DFFR_0_.D net129 vdd vdd vss vss gf180mcu_fd_sc_mcu7t5v0__dlyb_1
Xhold54 mem_bottom_track_1.DFFR_1_.Q net151 vdd vdd vss vss gf180mcu_fd_sc_mcu7t5v0__dlyb_1
Xhold65 mem_top_track_16.DFFR_1_.Q net162 vdd vdd vss vss gf180mcu_fd_sc_mcu7t5v0__dlyb_1
Xhold87 mem_top_track_24.DFFR_1_.Q net184 vdd vdd vss vss gf180mcu_fd_sc_mcu7t5v0__dlyb_1
XFILLER_0_32_41 vdd vdd vss vss gf180mcu_fd_sc_mcu7t5v0__fill_2
XFILLER_0_32_2 vdd vdd vss vss gf180mcu_fd_sc_mcu7t5v0__fill_2
XANTENNA__374__I net26 vdd vdd vss vss gf180mcu_fd_sc_mcu7t5v0__antenna
XFILLER_0_16_31 vdd vdd vss vss gf180mcu_fd_sc_mcu7t5v0__fill_2
XFILLER_0_12_155 vdd vdd vss vss gf180mcu_fd_sc_mcu7t5v0__fill_2
XFILLER_0_12_177 vdd vdd vss vss gf180mcu_fd_sc_mcu7t5v0__fill_2
Xoutput44 net44 chany_bottom_out[13] vdd vdd vss vss gf180mcu_fd_sc_mcu7t5v0__buf_3
Xoutput66 net66 chany_top_out[2] vdd vdd vss vss gf180mcu_fd_sc_mcu7t5v0__buf_3
Xoutput55 net55 chany_bottom_out[7] vdd vdd vss vss gf180mcu_fd_sc_mcu7t5v0__buf_3
XTAP_TAPCELL_ROW_18_139 vdd vss gf180mcu_fd_sc_mcu7t5v0__filltie
XFILLER_0_27_63 vdd vdd vss vss gf180mcu_fd_sc_mcu7t5v0__fill_1
XFILLER_0_26_247 vdd vdd vss vss gf180mcu_fd_sc_mcu7t5v0__fillcap_8
XFILLER_0_32_239 vdd vdd vss vss gf180mcu_fd_sc_mcu7t5v0__fillcap_4
XTAP_TAPCELL_ROW_32_186 vdd vss gf180mcu_fd_sc_mcu7t5v0__filltie
X_291_ net108 _055_ clknet_3_5__leaf_prog_clk mem_bottom_track_25.DFFR_2_.Q vdd vdd
+ vss vss gf180mcu_fd_sc_mcu7t5v0__dffrnq_1
XTAP_TAPCELL_ROW_9_107 vdd vss gf180mcu_fd_sc_mcu7t5v0__filltie
XFILLER_0_4_141 vdd vdd vss vss gf180mcu_fd_sc_mcu7t5v0__fill_2
XFILLER_0_4_174 vdd vdd vss vss gf180mcu_fd_sc_mcu7t5v0__fill_1
XANTENNA__331__CLK clknet_3_2__leaf_prog_clk vdd vdd vss vss gf180mcu_fd_sc_mcu7t5v0__antenna
XTAP_TAPCELL_ROW_20_145 vdd vss gf180mcu_fd_sc_mcu7t5v0__filltie
XFILLER_0_13_272 vdd vdd vss vss gf180mcu_fd_sc_mcu7t5v0__fillcap_4
XFILLER_0_9_255 vdd vdd vss vss gf180mcu_fd_sc_mcu7t5v0__fill_2
XFILLER_0_1_144 vdd vdd vss vss gf180mcu_fd_sc_mcu7t5v0__fill_1
X_274_ net112 _038_ clknet_3_5__leaf_prog_clk mem_top_track_32.DFFR_1_.Q vdd vdd vss
+ vss gf180mcu_fd_sc_mcu7t5v0__dffrnq_1
XFILLER_0_11_209 vdd vdd vss vss gf180mcu_fd_sc_mcu7t5v0__fill_1
XFILLER_0_4_30 vdd vdd vss vss gf180mcu_fd_sc_mcu7t5v0__fill_2
XFILLER_0_6_247 vdd vdd vss vss gf180mcu_fd_sc_mcu7t5v0__fill_2
X_326_ net153 _090_ clknet_3_3__leaf_prog_clk mem_right_track_4.DFFR_1_.Q vdd vdd
+ vss vss gf180mcu_fd_sc_mcu7t5v0__dffrnq_1
X_188_ _114_ _061_ vdd vdd vss vss gf180mcu_fd_sc_mcu7t5v0__clkinv_2
XFILLER_0_10_55 vdd vdd vss vss gf180mcu_fd_sc_mcu7t5v0__fillcap_8
XTAP_TAPCELL_ROW_0_70 vdd vss gf180mcu_fd_sc_mcu7t5v0__filltie
X_257_ net116 _021_ clknet_3_4__leaf_prog_clk mem_top_track_8.DFFR_0_.Q vdd vdd vss
+ vss gf180mcu_fd_sc_mcu7t5v0__dffrnq_1
XFILLER_0_27_161 vdd vdd vss vss gf180mcu_fd_sc_mcu7t5v0__fill_2
XANTENNA_input34_I chany_top_in[8] vdd vdd vss vss gf180mcu_fd_sc_mcu7t5v0__antenna
XFILLER_0_2_272 vdd vdd vss vss gf180mcu_fd_sc_mcu7t5v0__fill_2
XANTENNA__197__I _106_ vdd vdd vss vss gf180mcu_fd_sc_mcu7t5v0__antenna
X_309_ net196 _073_ clknet_3_2__leaf_prog_clk mem_right_track_22.DFFR_0_.Q vdd vdd
+ vss vss gf180mcu_fd_sc_mcu7t5v0__dffrnq_1
XFILLER_0_24_164 vdd vdd vss vss gf180mcu_fd_sc_mcu7t5v0__fill_2
XFILLER_0_15_186 vdd vdd vss vss gf180mcu_fd_sc_mcu7t5v0__fill_2
XFILLER_0_15_142 vdd vdd vss vss gf180mcu_fd_sc_mcu7t5v0__fill_2
XFILLER_0_1_42 vdd vdd vss vss gf180mcu_fd_sc_mcu7t5v0__fill_2
Xhold44 mem_right_track_2.DFFR_1_.Q net141 vdd vdd vss vss gf180mcu_fd_sc_mcu7t5v0__dlyb_1
Xhold88 mem_right_track_0.DFFR_1_.Q net185 vdd vdd vss vss gf180mcu_fd_sc_mcu7t5v0__dlyb_1
Xhold55 mem_right_track_6.DFFR_5_.Q net152 vdd vdd vss vss gf180mcu_fd_sc_mcu7t5v0__dlyb_1
Xhold11 mem_bottom_track_25.DFFR_1_.Q net108 vdd vdd vss vss gf180mcu_fd_sc_mcu7t5v0__dlyb_1
XFILLER_0_21_167 vdd vdd vss vss gf180mcu_fd_sc_mcu7t5v0__fillcap_4
Xhold99 mem_right_track_20.DFFR_1_.Q net196 vdd vdd vss vss gf180mcu_fd_sc_mcu7t5v0__dlyb_1
Xhold33 mem_top_track_24.DFFR_5_.Q net130 vdd vdd vss vss gf180mcu_fd_sc_mcu7t5v0__dlyb_1
Xhold22 mem_top_track_0.DFFR_4_.Q net119 vdd vdd vss vss gf180mcu_fd_sc_mcu7t5v0__dlyb_1
Xhold77 mem_top_track_8.DFFR_4_.Q net174 vdd vdd vss vss gf180mcu_fd_sc_mcu7t5v0__dlyb_1
Xhold66 mem_top_track_16.DFFR_5_.Q net163 vdd vdd vss vss gf180mcu_fd_sc_mcu7t5v0__dlyb_1
XFILLER_0_32_75 vdd vdd vss vss gf180mcu_fd_sc_mcu7t5v0__fill_2
XFILLER_0_29_212 vdd vdd vss vss gf180mcu_fd_sc_mcu7t5v0__fill_2
XFILLER_0_29_201 vdd vdd vss vss gf180mcu_fd_sc_mcu7t5v0__fill_2
XFILLER_0_12_123 vdd vdd vss vss gf180mcu_fd_sc_mcu7t5v0__fill_2
XFILLER_0_12_101 vdd vdd vss vss gf180mcu_fd_sc_mcu7t5v0__fill_2
Xoutput45 net45 chany_bottom_out[14] vdd vdd vss vss gf180mcu_fd_sc_mcu7t5v0__buf_3
Xoutput56 net56 chany_bottom_out[9] vdd vdd vss vss gf180mcu_fd_sc_mcu7t5v0__buf_3
Xoutput67 net67 chany_top_out[3] vdd vdd vss vss gf180mcu_fd_sc_mcu7t5v0__buf_3
XFILLER_0_7_150 vdd vdd vss vss gf180mcu_fd_sc_mcu7t5v0__fill_1
XFILLER_0_27_86 vdd vdd vss vss gf180mcu_fd_sc_mcu7t5v0__fill_2
XANTENNA__260__CLK clknet_3_1__leaf_prog_clk vdd vdd vss vss gf180mcu_fd_sc_mcu7t5v0__antenna
XTAP_TAPCELL_ROW_32_187 vdd vss gf180mcu_fd_sc_mcu7t5v0__filltie
XTAP_TAPCELL_ROW_9_108 vdd vss gf180mcu_fd_sc_mcu7t5v0__filltie
XFILLER_0_4_153 vdd vdd vss vss gf180mcu_fd_sc_mcu7t5v0__fill_2
X_290_ net124 _054_ clknet_3_7__leaf_prog_clk mem_bottom_track_25.DFFR_3_.Q vdd vdd
+ vss vss gf180mcu_fd_sc_mcu7t5v0__dffrnq_1
XANTENNA__283__CLK clknet_3_6__leaf_prog_clk vdd vdd vss vss gf180mcu_fd_sc_mcu7t5v0__antenna
XTAP_TAPCELL_ROW_20_146 vdd vss gf180mcu_fd_sc_mcu7t5v0__filltie
XPHY_EDGE_ROW_19_Left_54 vdd vss gf180mcu_fd_sc_mcu7t5v0__endcap
XFILLER_0_14_218 vdd vdd vss vss gf180mcu_fd_sc_mcu7t5v0__fill_2
XFILLER_0_9_212 vdd vdd vss vss gf180mcu_fd_sc_mcu7t5v0__fill_2
XFILLER_0_1_189 vdd vdd vss vss gf180mcu_fd_sc_mcu7t5v0__fill_1
XTAP_TAPCELL_ROW_11_113 vdd vss gf180mcu_fd_sc_mcu7t5v0__filltie
X_273_ net171 _037_ clknet_3_5__leaf_prog_clk mem_top_track_32.DFFR_2_.Q vdd vdd vss
+ vss gf180mcu_fd_sc_mcu7t5v0__dffrnq_1
XFILLER_0_0_8 vdd vdd vss vss gf180mcu_fd_sc_mcu7t5v0__fill_1
XFILLER_0_24_32 vdd vdd vss vss gf180mcu_fd_sc_mcu7t5v0__fill_1
XFILLER_0_10_276 vdd vdd vss vss gf180mcu_fd_sc_mcu7t5v0__fill_1
XPHY_EDGE_ROW_4_Left_39 vdd vss gf180mcu_fd_sc_mcu7t5v0__endcap
XFILLER_0_4_86 vdd vdd vss vss gf180mcu_fd_sc_mcu7t5v0__fill_1
X_325_ net126 _089_ clknet_3_3__leaf_prog_clk mem_right_track_4.DFFR_2_.Q vdd vdd
+ vss vss gf180mcu_fd_sc_mcu7t5v0__dffrnq_1
X_187_ _114_ _060_ vdd vdd vss vss gf180mcu_fd_sc_mcu7t5v0__clkinv_2
XFILLER_0_28_107 vdd vdd vss vss gf180mcu_fd_sc_mcu7t5v0__fill_1
XTAP_TAPCELL_ROW_0_71 vdd vss gf180mcu_fd_sc_mcu7t5v0__filltie
X_256_ net181 _020_ clknet_3_4__leaf_prog_clk mem_top_track_8.DFFR_1_.Q vdd vdd vss
+ vss gf180mcu_fd_sc_mcu7t5v0__dffrnq_1
XANTENNA_input27_I chany_top_in[17] vdd vdd vss vss gf180mcu_fd_sc_mcu7t5v0__antenna
XFILLER_0_2_251 vdd vdd vss vss gf180mcu_fd_sc_mcu7t5v0__fill_2
XFILLER_0_21_88 vdd vdd vss vss gf180mcu_fd_sc_mcu7t5v0__fill_2
X_308_ net98 _072_ clknet_3_0__leaf_prog_clk mem_right_track_22.DFFR_1_.Q vdd vdd
+ vss vss gf180mcu_fd_sc_mcu7t5v0__dffrnq_1
XFILLER_0_1_65 vdd vdd vss vss gf180mcu_fd_sc_mcu7t5v0__fill_2
X_239_ net166 _003_ clknet_3_0__leaf_prog_clk mem_top_track_0.DFFR_4_.Q vdd vdd vss
+ vss gf180mcu_fd_sc_mcu7t5v0__dffrnq_1
Xhold56 mem_right_track_4.DFFR_0_.Q net153 vdd vdd vss vss gf180mcu_fd_sc_mcu7t5v0__dlyb_1
Xhold78 mem_right_track_12.DFFR_1_.Q net175 vdd vdd vss vss gf180mcu_fd_sc_mcu7t5v0__dlyb_1
Xhold12 mem_right_track_18.DFFR_0_.Q net109 vdd vdd vss vss gf180mcu_fd_sc_mcu7t5v0__dlyb_1
Xhold34 mem_bottom_track_17.DFFR_4_.Q net131 vdd vdd vss vss gf180mcu_fd_sc_mcu7t5v0__dlyb_1
Xhold89 mem_right_track_16.DFFR_1_.Q net186 vdd vdd vss vss gf180mcu_fd_sc_mcu7t5v0__dlyb_1
Xhold45 mem_right_track_20.DFFR_0_.Q net142 vdd vdd vss vss gf180mcu_fd_sc_mcu7t5v0__dlyb_1
Xhold67 mem_top_track_32.DFFR_4_.Q net164 vdd vdd vss vss gf180mcu_fd_sc_mcu7t5v0__dlyb_1
XPHY_EDGE_ROW_7_Left_42 vdd vss gf180mcu_fd_sc_mcu7t5v0__endcap
Xhold23 mem_top_track_16.DFFR_0_.Q net120 vdd vdd vss vss gf180mcu_fd_sc_mcu7t5v0__dlyb_1
XFILLER_0_32_87 vdd vdd vss vss gf180mcu_fd_sc_mcu7t5v0__fill_2
XFILLER_0_21_146 vdd vdd vss vss gf180mcu_fd_sc_mcu7t5v0__fillcap_4
XPHY_EDGE_ROW_33_Left_68 vdd vss gf180mcu_fd_sc_mcu7t5v0__endcap
Xoutput46 net46 chany_bottom_out[15] vdd vdd vss vss gf180mcu_fd_sc_mcu7t5v0__buf_3
XFILLER_0_18_2 vdd vdd vss vss gf180mcu_fd_sc_mcu7t5v0__fill_2
XANTENNA_clkbuf_3_4__f_prog_clk_I clknet_0_prog_clk vdd vdd vss vss gf180mcu_fd_sc_mcu7t5v0__antenna
Xoutput57 net57 chany_top_out[10] vdd vdd vss vss gf180mcu_fd_sc_mcu7t5v0__clkbuf_4
XPHY_EDGE_ROW_28_Right_28 vdd vss gf180mcu_fd_sc_mcu7t5v0__endcap
Xoutput68 net68 chany_top_out[5] vdd vdd vss vss gf180mcu_fd_sc_mcu7t5v0__buf_3
XPHY_EDGE_ROW_19_Right_19 vdd vss gf180mcu_fd_sc_mcu7t5v0__endcap
XFILLER_0_11_190 vdd vdd vss vss gf180mcu_fd_sc_mcu7t5v0__fill_1
XTAP_TAPCELL_ROW_32_188 vdd vss gf180mcu_fd_sc_mcu7t5v0__filltie
XFILLER_0_4_121 vdd vdd vss vss gf180mcu_fd_sc_mcu7t5v0__fill_2
XFILLER_0_7_86 vdd vdd vss vss gf180mcu_fd_sc_mcu7t5v0__fill_2
XTAP_TAPCELL_ROW_23_155 vdd vss gf180mcu_fd_sc_mcu7t5v0__filltie
XFILLER_0_22_263 vdd vdd vss vss gf180mcu_fd_sc_mcu7t5v0__fillcap_4
XFILLER_0_22_241 vdd vdd vss vss gf180mcu_fd_sc_mcu7t5v0__fillcap_4
XFILLER_0_22_230 vdd vdd vss vss gf180mcu_fd_sc_mcu7t5v0__fill_1
XFILLER_0_13_78 vdd vdd vss vss gf180mcu_fd_sc_mcu7t5v0__fill_2
XANTENNA_input1_I ccff_head vdd vdd vss vss gf180mcu_fd_sc_mcu7t5v0__antenna
X_341_ net186 _105_ clknet_3_3__leaf_prog_clk mem_right_track_18.DFFR_0_.Q vdd vdd
+ vss vss gf180mcu_fd_sc_mcu7t5v0__dffrnq_1
XTAP_TAPCELL_ROW_20_147 vdd vss gf180mcu_fd_sc_mcu7t5v0__filltie
XANTENNA__250__CLK clknet_3_0__leaf_prog_clk vdd vdd vss vss gf180mcu_fd_sc_mcu7t5v0__antenna
X_272_ net187 _036_ clknet_3_5__leaf_prog_clk mem_top_track_32.DFFR_3_.Q vdd vdd vss
+ vss gf180mcu_fd_sc_mcu7t5v0__dffrnq_1
XPHY_EDGE_ROW_20_Left_55 vdd vss gf180mcu_fd_sc_mcu7t5v0__endcap
XTAP_TAPCELL_ROW_11_114 vdd vss gf180mcu_fd_sc_mcu7t5v0__filltie
XFILLER_0_10_255 vdd vdd vss vss gf180mcu_fd_sc_mcu7t5v0__fill_1
XANTENNA__273__CLK clknet_3_5__leaf_prog_clk vdd vdd vss vss gf180mcu_fd_sc_mcu7t5v0__antenna
XFILLER_0_4_43 vdd vdd vss vss gf180mcu_fd_sc_mcu7t5v0__fill_1
XFILLER_0_4_32 vdd vdd vss vss gf180mcu_fd_sc_mcu7t5v0__fill_1
X_324_ net178 _088_ clknet_3_3__leaf_prog_clk mem_right_track_4.DFFR_3_.Q vdd vdd
+ vss vss gf180mcu_fd_sc_mcu7t5v0__dffrnq_1
X_186_ _106_ _114_ vdd vdd vss vss gf180mcu_fd_sc_mcu7t5v0__buf_4
X_255_ net189 _019_ clknet_3_1__leaf_prog_clk mem_top_track_8.DFFR_2_.Q vdd vdd vss
+ vss gf180mcu_fd_sc_mcu7t5v0__dffrnq_1
XFILLER_0_27_163 vdd vdd vss vss gf180mcu_fd_sc_mcu7t5v0__fill_1
XTAP_TAPCELL_ROW_0_72 vdd vss gf180mcu_fd_sc_mcu7t5v0__filltie
XFILLER_0_33_122 vdd vdd vss vss gf180mcu_fd_sc_mcu7t5v0__fill_2
XFILLER_0_18_174 vdd vdd vss vss gf180mcu_fd_sc_mcu7t5v0__fill_1
X_307_ net191 _071_ clknet_3_2__leaf_prog_clk mem_right_track_20.DFFR_0_.Q vdd vdd
+ vss vss gf180mcu_fd_sc_mcu7t5v0__dffrnq_1
XANTENNA__311__CLK clknet_3_2__leaf_prog_clk vdd vdd vss vss gf180mcu_fd_sc_mcu7t5v0__antenna
X_169_ _112_ _044_ vdd vdd vss vss gf180mcu_fd_sc_mcu7t5v0__clkinv_2
XFILLER_0_1_44 vdd vdd vss vss gf180mcu_fd_sc_mcu7t5v0__fill_1
X_238_ net119 _002_ clknet_3_1__leaf_prog_clk mem_top_track_0.DFFR_5_.Q vdd vdd vss
+ vss gf180mcu_fd_sc_mcu7t5v0__dffrnq_1
XFILLER_0_30_125 vdd vdd vss vss gf180mcu_fd_sc_mcu7t5v0__fill_2
Xhold79 mem_right_track_6.DFFR_1_.Q net176 vdd vdd vss vss gf180mcu_fd_sc_mcu7t5v0__dlyb_1
Xhold57 mem_right_track_14.DFFR_0_.Q net154 vdd vdd vss vss gf180mcu_fd_sc_mcu7t5v0__dlyb_1
Xhold35 mem_bottom_track_9.DFFR_2_.Q net132 vdd vdd vss vss gf180mcu_fd_sc_mcu7t5v0__dlyb_1
Xhold13 mem_right_track_26.DFFR_0_.Q net110 vdd vdd vss vss gf180mcu_fd_sc_mcu7t5v0__dlyb_1
Xhold24 mem_bottom_track_9.DFFR_1_.Q net121 vdd vdd vss vss gf180mcu_fd_sc_mcu7t5v0__dlyb_1
Xhold68 mem_right_track_24.DFFR_0_.Q net165 vdd vdd vss vss gf180mcu_fd_sc_mcu7t5v0__dlyb_1
Xhold46 mem_top_track_16.DFFR_0_.D net143 vdd vdd vss vss gf180mcu_fd_sc_mcu7t5v0__dlyb_1
XANTENNA__334__CLK clknet_3_2__leaf_prog_clk vdd vdd vss vss gf180mcu_fd_sc_mcu7t5v0__antenna
XFILLER_0_7_185 vdd vdd vss vss gf180mcu_fd_sc_mcu7t5v0__fill_2
Xoutput47 net47 chany_bottom_out[17] vdd vdd vss vss gf180mcu_fd_sc_mcu7t5v0__buf_3
Xoutput69 net69 chany_top_out[6] vdd vdd vss vss gf180mcu_fd_sc_mcu7t5v0__buf_3
Xoutput58 net58 chany_top_out[11] vdd vdd vss vss gf180mcu_fd_sc_mcu7t5v0__buf_3
XTAP_TAPCELL_ROW_32_189 vdd vss gf180mcu_fd_sc_mcu7t5v0__filltie
XFILLER_0_4_155 vdd vdd vss vss gf180mcu_fd_sc_mcu7t5v0__fill_1
XFILLER_0_4_188 vdd vdd vss vss gf180mcu_fd_sc_mcu7t5v0__fillcap_4
XFILLER_0_4_177 vdd vdd vss vss gf180mcu_fd_sc_mcu7t5v0__fill_1
XFILLER_0_31_220 vdd vdd vss vss gf180mcu_fd_sc_mcu7t5v0__fill_1
XFILLER_0_30_2 vdd vdd vss vss gf180mcu_fd_sc_mcu7t5v0__fill_2
XANTENNA_output70_I net70 vdd vdd vss vss gf180mcu_fd_sc_mcu7t5v0__antenna
XTAP_TAPCELL_ROW_23_156 vdd vss gf180mcu_fd_sc_mcu7t5v0__filltie
XFILLER_0_16_272 vdd vdd vss vss gf180mcu_fd_sc_mcu7t5v0__fill_2
XFILLER_0_22_275 vdd vdd vss vss gf180mcu_fd_sc_mcu7t5v0__fill_2
XTAP_TAPCELL_ROW_14_123 vdd vss gf180mcu_fd_sc_mcu7t5v0__filltie
XFILLER_0_1_147 vdd vdd vss vss gf180mcu_fd_sc_mcu7t5v0__fill_2
XFILLER_0_9_214 vdd vdd vss vss gf180mcu_fd_sc_mcu7t5v0__fill_1
X_340_ net109 _104_ clknet_3_6__leaf_prog_clk mem_right_track_18.DFFR_1_.Q vdd vdd
+ vss vss gf180mcu_fd_sc_mcu7t5v0__dffrnq_1
XTAP_TAPCELL_ROW_11_115 vdd vss gf180mcu_fd_sc_mcu7t5v0__filltie
X_271_ net194 _035_ clknet_3_5__leaf_prog_clk mem_top_track_32.DFFR_4_.Q vdd vdd vss
+ vss gf180mcu_fd_sc_mcu7t5v0__dffrnq_1
XANTENNA__200__I _115_ vdd vdd vss vss gf180mcu_fd_sc_mcu7t5v0__antenna
X_323_ net99 _087_ clknet_3_6__leaf_prog_clk mem_right_track_4.DFFR_4_.Q vdd vdd vss
+ vss gf180mcu_fd_sc_mcu7t5v0__dffrnq_1
X_185_ _113_ _059_ vdd vdd vss vss gf180mcu_fd_sc_mcu7t5v0__clkinv_2
XFILLER_0_3_209 vdd vdd vss vss gf180mcu_fd_sc_mcu7t5v0__fill_1
X_254_ net105 _018_ clknet_3_0__leaf_prog_clk mem_top_track_8.DFFR_3_.Q vdd vdd vss
+ vss gf180mcu_fd_sc_mcu7t5v0__dffrnq_1
XFILLER_0_19_67 vdd vdd vss vss gf180mcu_fd_sc_mcu7t5v0__fill_1