* NGSPICE file created from sb_1__1_.ext - technology: gf180mcuD

* Black-box entry subcircuit for gf180mcu_fd_sc_mcu7t5v0__fillcap_4 abstract view
.subckt gf180mcu_fd_sc_mcu7t5v0__fillcap_4 VDD VNW VPW VSS
.ends

* Black-box entry subcircuit for gf180mcu_fd_sc_mcu7t5v0__filltie abstract view
.subckt gf180mcu_fd_sc_mcu7t5v0__filltie VDD VSS
.ends

* Black-box entry subcircuit for gf180mcu_fd_sc_mcu7t5v0__fillcap_8 abstract view
.subckt gf180mcu_fd_sc_mcu7t5v0__fillcap_8 VDD VNW VPW VSS
.ends

* Black-box entry subcircuit for gf180mcu_fd_sc_mcu7t5v0__dffrnq_1 abstract view
.subckt gf180mcu_fd_sc_mcu7t5v0__dffrnq_1 D RN CLK Q VDD VNW VPW VSS
.ends

* Black-box entry subcircuit for gf180mcu_fd_sc_mcu7t5v0__clkinv_2 abstract view
.subckt gf180mcu_fd_sc_mcu7t5v0__clkinv_2 I ZN VDD VNW VPW VSS
.ends

* Black-box entry subcircuit for gf180mcu_fd_sc_mcu7t5v0__fillcap_64 abstract view
.subckt gf180mcu_fd_sc_mcu7t5v0__fillcap_64 VDD VNW VPW VSS
.ends

* Black-box entry subcircuit for gf180mcu_fd_sc_mcu7t5v0__fillcap_32 abstract view
.subckt gf180mcu_fd_sc_mcu7t5v0__fillcap_32 VDD VNW VPW VSS
.ends

* Black-box entry subcircuit for gf180mcu_fd_sc_mcu7t5v0__fill_2 abstract view
.subckt gf180mcu_fd_sc_mcu7t5v0__fill_2 VDD VNW VPW VSS
.ends

* Black-box entry subcircuit for gf180mcu_fd_sc_mcu7t5v0__endcap abstract view
.subckt gf180mcu_fd_sc_mcu7t5v0__endcap VDD VSS
.ends

* Black-box entry subcircuit for gf180mcu_fd_sc_mcu7t5v0__antenna abstract view
.subckt gf180mcu_fd_sc_mcu7t5v0__antenna I VDD VNW VPW VSS
.ends

* Black-box entry subcircuit for gf180mcu_fd_sc_mcu7t5v0__fill_1 abstract view
.subckt gf180mcu_fd_sc_mcu7t5v0__fill_1 VDD VNW VPW VSS
.ends

* Black-box entry subcircuit for gf180mcu_fd_sc_mcu7t5v0__fillcap_16 abstract view
.subckt gf180mcu_fd_sc_mcu7t5v0__fillcap_16 VDD VNW VPW VSS
.ends

* Black-box entry subcircuit for gf180mcu_fd_sc_mcu7t5v0__dlyb_1 abstract view
.subckt gf180mcu_fd_sc_mcu7t5v0__dlyb_1 I Z VDD VNW VPW VSS
.ends

* Black-box entry subcircuit for gf180mcu_fd_sc_mcu7t5v0__clkbuf_1 abstract view
.subckt gf180mcu_fd_sc_mcu7t5v0__clkbuf_1 I Z VDD VNW VPW VSS
.ends

* Black-box entry subcircuit for gf180mcu_fd_sc_mcu7t5v0__clkbuf_4 abstract view
.subckt gf180mcu_fd_sc_mcu7t5v0__clkbuf_4 I Z VDD VNW VPW VSS
.ends

* Black-box entry subcircuit for gf180mcu_fd_sc_mcu7t5v0__buf_3 abstract view
.subckt gf180mcu_fd_sc_mcu7t5v0__buf_3 I Z VDD VNW VPW VSS
.ends

* Black-box entry subcircuit for gf180mcu_fd_sc_mcu7t5v0__buf_4 abstract view
.subckt gf180mcu_fd_sc_mcu7t5v0__buf_4 I Z VDD VNW VPW VSS
.ends

* Black-box entry subcircuit for gf180mcu_fd_sc_mcu7t5v0__clkbuf_8 abstract view
.subckt gf180mcu_fd_sc_mcu7t5v0__clkbuf_8 I Z VDD VNW VPW VSS
.ends

* Black-box entry subcircuit for gf180mcu_fd_sc_mcu7t5v0__clkbuf_3 abstract view
.subckt gf180mcu_fd_sc_mcu7t5v0__clkbuf_3 I Z VDD VNW VPW VSS
.ends

* Black-box entry subcircuit for gf180mcu_fd_sc_mcu7t5v0__buf_8 abstract view
.subckt gf180mcu_fd_sc_mcu7t5v0__buf_8 I Z VDD VNW VPW VSS
.ends

* Black-box entry subcircuit for gf180mcu_fd_sc_mcu7t5v0__clkbuf_16 abstract view
.subckt gf180mcu_fd_sc_mcu7t5v0__clkbuf_16 I Z VDD VNW VPW VSS
.ends

* Black-box entry subcircuit for gf180mcu_fd_sc_mcu7t5v0__clkinv_3 abstract view
.subckt gf180mcu_fd_sc_mcu7t5v0__clkinv_3 I ZN VDD VNW VPW VSS
.ends

* Black-box entry subcircuit for gf180mcu_fd_sc_mcu7t5v0__buf_1 abstract view
.subckt gf180mcu_fd_sc_mcu7t5v0__buf_1 I Z VDD VNW VPW VSS
.ends

* Black-box entry subcircuit for gf180mcu_fd_sc_mcu7t5v0__tiel abstract view
.subckt gf180mcu_fd_sc_mcu7t5v0__tiel ZN VDD VNW VPW VSS
.ends

* Black-box entry subcircuit for gf180mcu_fd_sc_mcu7t5v0__buf_12 abstract view
.subckt gf180mcu_fd_sc_mcu7t5v0__buf_12 I Z VDD VNW VPW VSS
.ends

.subckt sb_1__1_ bottom_left_grid_right_width_0_height_0_subtile_0__pin_O_1_ bottom_left_grid_right_width_0_height_0_subtile_0__pin_O_5_
+ bottom_right_grid_left_width_0_height_0_subtile_0__pin_O_3_ bottom_right_grid_left_width_0_height_0_subtile_0__pin_O_7_
+ ccff_head ccff_tail chanx_left_in[0] chanx_left_in[10] chanx_left_in[11] chanx_left_in[12]
+ chanx_left_in[13] chanx_left_in[14] chanx_left_in[15] chanx_left_in[16] chanx_left_in[17]
+ chanx_left_in[18] chanx_left_in[19] chanx_left_in[1] chanx_left_in[2] chanx_left_in[3]
+ chanx_left_in[4] chanx_left_in[5] chanx_left_in[6] chanx_left_in[7] chanx_left_in[8]
+ chanx_left_in[9] chanx_left_out[0] chanx_left_out[10] chanx_left_out[11] chanx_left_out[13]
+ chanx_left_out[14] chanx_left_out[15] chanx_left_out[16] chanx_left_out[17] chanx_left_out[18]
+ chanx_left_out[19] chanx_left_out[1] chanx_left_out[2] chanx_left_out[3] chanx_left_out[4]
+ chanx_left_out[5] chanx_left_out[6] chanx_left_out[7] chanx_left_out[9] chanx_right_in[0]
+ chanx_right_in[10] chanx_right_in[11] chanx_right_in[12] chanx_right_in[13] chanx_right_in[14]
+ chanx_right_in[15] chanx_right_in[16] chanx_right_in[17] chanx_right_in[18] chanx_right_in[19]
+ chanx_right_in[1] chanx_right_in[2] chanx_right_in[3] chanx_right_in[4] chanx_right_in[5]
+ chanx_right_in[6] chanx_right_in[7] chanx_right_in[8] chanx_right_in[9] chanx_right_out[0]
+ chanx_right_out[10] chanx_right_out[11] chanx_right_out[12] chanx_right_out[13]
+ chanx_right_out[14] chanx_right_out[15] chanx_right_out[16] chanx_right_out[17]
+ chanx_right_out[18] chanx_right_out[19] chanx_right_out[1] chanx_right_out[2] chanx_right_out[3]
+ chanx_right_out[4] chanx_right_out[5] chanx_right_out[6] chanx_right_out[7] chanx_right_out[8]
+ chanx_right_out[9] chany_bottom_in[0] chany_bottom_in[10] chany_bottom_in[11] chany_bottom_in[12]
+ chany_bottom_in[13] chany_bottom_in[14] chany_bottom_in[15] chany_bottom_in[16]
+ chany_bottom_in[17] chany_bottom_in[18] chany_bottom_in[19] chany_bottom_in[1] chany_bottom_in[2]
+ chany_bottom_in[3] chany_bottom_in[4] chany_bottom_in[5] chany_bottom_in[6] chany_bottom_in[7]
+ chany_bottom_in[8] chany_bottom_in[9] chany_bottom_out[10] chany_bottom_out[11]
+ chany_bottom_out[13] chany_bottom_out[14] chany_bottom_out[15] chany_bottom_out[16]
+ chany_bottom_out[17] chany_bottom_out[18] chany_bottom_out[19] chany_bottom_out[1]
+ chany_bottom_out[2] chany_bottom_out[3] chany_bottom_out[5] chany_bottom_out[6]
+ chany_bottom_out[7] chany_bottom_out[9] chany_top_in[0] chany_top_in[10] chany_top_in[11]
+ chany_top_in[12] chany_top_in[13] chany_top_in[14] chany_top_in[15] chany_top_in[16]
+ chany_top_in[17] chany_top_in[18] chany_top_in[19] chany_top_in[1] chany_top_in[2]
+ chany_top_in[3] chany_top_in[4] chany_top_in[5] chany_top_in[6] chany_top_in[7]
+ chany_top_in[8] chany_top_in[9] chany_top_out[0] chany_top_out[10] chany_top_out[11]
+ chany_top_out[12] chany_top_out[13] chany_top_out[14] chany_top_out[15] chany_top_out[17]
+ chany_top_out[18] chany_top_out[19] chany_top_out[1] chany_top_out[2] chany_top_out[3]
+ chany_top_out[4] chany_top_out[5] chany_top_out[6] chany_top_out[7] chany_top_out[8]
+ chany_top_out[9] left_bottom_grid_top_width_0_height_0_subtile_0__pin_O_0_ left_bottom_grid_top_width_0_height_0_subtile_0__pin_O_4_
+ left_top_grid_bottom_width_0_height_0_subtile_0__pin_O_2_ left_top_grid_bottom_width_0_height_0_subtile_0__pin_O_6_
+ pReset prog_clk right_bottom_grid_top_width_0_height_0_subtile_0__pin_O_0_ right_bottom_grid_top_width_0_height_0_subtile_0__pin_O_4_
+ right_top_grid_bottom_width_0_height_0_subtile_0__pin_O_2_ right_top_grid_bottom_width_0_height_0_subtile_0__pin_O_6_
+ top_left_grid_right_width_0_height_0_subtile_0__pin_O_1_ top_left_grid_right_width_0_height_0_subtile_0__pin_O_5_
+ top_right_grid_left_width_0_height_0_subtile_0__pin_O_3_ top_right_grid_left_width_0_height_0_subtile_0__pin_O_7_
+ vdd vss chany_top_out[16] chany_bottom_out[0] chany_bottom_out[4] chany_bottom_out[8]
+ chany_bottom_out[12] chanx_left_out[8] chanx_left_out[12]
XFILLER_0_49_314 vdd vdd vss vss gf180mcu_fd_sc_mcu7t5v0__fillcap_4
XTAP_TAPCELL_ROW_52_404 vdd vss gf180mcu_fd_sc_mcu7t5v0__filltie
XFILLER_0_49_336 vdd vdd vss vss gf180mcu_fd_sc_mcu7t5v0__fillcap_8
XFILLER_0_4_171 vdd vdd vss vss gf180mcu_fd_sc_mcu7t5v0__fillcap_4
X_432_ net167 _076_ clknet_4_2_0_prog_clk mem_bottom_track_9.DFFR_3_.Q vdd vdd vss
+ vss gf180mcu_fd_sc_mcu7t5v0__dffrnq_1
X_501_ net241 _145_ clknet_4_9_0_prog_clk mem_bottom_track_33.DFFR_6_.Q vdd vdd vss
+ vss gf180mcu_fd_sc_mcu7t5v0__dffrnq_1
X_363_ net1 _007_ clknet_4_0_0_prog_clk mem_top_track_0.DFFR_0_.Q vdd vdd vss vss
+ gf180mcu_fd_sc_mcu7t5v0__dffrnq_1
X_294_ _172_ _103_ vdd vdd vss vss gf180mcu_fd_sc_mcu7t5v0__clkinv_2
XFILLER_0_48_37 vdd vdd vss vss gf180mcu_fd_sc_mcu7t5v0__fillcap_64
XFILLER_0_46_317 vdd vdd vss vss gf180mcu_fd_sc_mcu7t5v0__fillcap_32
XFILLER_0_14_247 vdd vdd vss vss gf180mcu_fd_sc_mcu7t5v0__fillcap_4
XFILLER_0_1_185 vdd vdd vss vss gf180mcu_fd_sc_mcu7t5v0__fill_2
XPHY_EDGE_ROW_19_Left_72 vdd vss gf180mcu_fd_sc_mcu7t5v0__endcap
XTAP_TAPCELL_ROW_5_140 vdd vss gf180mcu_fd_sc_mcu7t5v0__filltie
X_415_ net260 _059_ clknet_4_6_0_prog_clk mem_right_track_24.DFFR_4_.Q vdd vdd vss
+ vss gf180mcu_fd_sc_mcu7t5v0__dffrnq_1
X_346_ _177_ _150_ vdd vdd vss vss gf180mcu_fd_sc_mcu7t5v0__clkinv_2
XFILLER_0_51_375 vdd vdd vss vss gf180mcu_fd_sc_mcu7t5v0__fillcap_8
XFILLER_0_36_383 vdd vdd vss vss gf180mcu_fd_sc_mcu7t5v0__fill_2
XTAP_TAPCELL_ROW_11_175 vdd vss gf180mcu_fd_sc_mcu7t5v0__filltie
X_277_ _170_ _088_ vdd vdd vss vss gf180mcu_fd_sc_mcu7t5v0__clkinv_2
XTAP_TAPCELL_ROW_19_220 vdd vss gf180mcu_fd_sc_mcu7t5v0__filltie
XANTENNA_input36_I chany_bottom_in[14] vdd vdd vss vss gf180mcu_fd_sc_mcu7t5v0__antenna
XPHY_EDGE_ROW_4_Left_57 vdd vss gf180mcu_fd_sc_mcu7t5v0__endcap
X_200_ _163_ _018_ vdd vdd vss vss gf180mcu_fd_sc_mcu7t5v0__clkinv_2
XFILLER_0_52_106 vdd vdd vss vss gf180mcu_fd_sc_mcu7t5v0__fill_1
XFILLER_0_18_361 vdd vdd vss vss gf180mcu_fd_sc_mcu7t5v0__fill_2
XTAP_TAPCELL_ROW_16_201 vdd vss gf180mcu_fd_sc_mcu7t5v0__filltie
XFILLER_0_43_139 vdd vdd vss vss gf180mcu_fd_sc_mcu7t5v0__fill_1
X_329_ _175_ _135_ vdd vdd vss vss gf180mcu_fd_sc_mcu7t5v0__clkinv_2
XFILLER_0_28_136 vdd vdd vss vss gf180mcu_fd_sc_mcu7t5v0__fillcap_8
XFILLER_0_10_41 vdd vdd vss vss gf180mcu_fd_sc_mcu7t5v0__fill_2
XFILLER_0_10_85 vdd vdd vss vss gf180mcu_fd_sc_mcu7t5v0__fillcap_16
XANTENNA__352__I _177_ vdd vdd vss vss gf180mcu_fd_sc_mcu7t5v0__antenna
XTAP_TAPCELL_ROW_39_326 vdd vss gf180mcu_fd_sc_mcu7t5v0__filltie
XFILLER_0_36_6 vdd vdd vss vss gf180mcu_fd_sc_mcu7t5v0__fill_1
XFILLER_0_47_401 vdd vdd vss vss gf180mcu_fd_sc_mcu7t5v0__fill_1
XTAP_TAPCELL_ROW_47_370 vdd vss gf180mcu_fd_sc_mcu7t5v0__filltie
XPHY_EDGE_ROW_46_Left_99 vdd vss gf180mcu_fd_sc_mcu7t5v0__endcap
XTAP_TAPCELL_ROW_30_281 vdd vss gf180mcu_fd_sc_mcu7t5v0__filltie
XTAP_TAPCELL_ROW_22_237 vdd vss gf180mcu_fd_sc_mcu7t5v0__filltie
XFILLER_0_38_401 vdd vdd vss vss gf180mcu_fd_sc_mcu7t5v0__fill_1
XFILLER_0_25_139 vdd vdd vss vss gf180mcu_fd_sc_mcu7t5v0__fill_1
XFILLER_0_33_150 vdd vdd vss vss gf180mcu_fd_sc_mcu7t5v0__fill_1
XFILLER_0_0_206 vdd vdd vss vss gf180mcu_fd_sc_mcu7t5v0__fill_2
XFILLER_0_8_317 vdd vdd vss vss gf180mcu_fd_sc_mcu7t5v0__fillcap_8
XANTENNA__347__I _177_ vdd vdd vss vss gf180mcu_fd_sc_mcu7t5v0__antenna
XFILLER_0_1_72 vdd vdd vss vss gf180mcu_fd_sc_mcu7t5v0__fill_1
XFILLER_0_1_83 vdd vdd vss vss gf180mcu_fd_sc_mcu7t5v0__fillcap_4
XFILLER_0_1_94 vdd vdd vss vss gf180mcu_fd_sc_mcu7t5v0__fill_1
XANTENNA__257__I _161_ vdd vdd vss vss gf180mcu_fd_sc_mcu7t5v0__antenna
XTAP_TAPCELL_ROW_50_387 vdd vss gf180mcu_fd_sc_mcu7t5v0__filltie
Xhold74 mem_bottom_track_33.DFFR_3_.Q net217 vdd vdd vss vss gf180mcu_fd_sc_mcu7t5v0__dlyb_1
Xhold30 mem_left_track_1.DFFR_3_.Q net173 vdd vdd vss vss gf180mcu_fd_sc_mcu7t5v0__dlyb_1
Xhold41 mem_left_track_9.DFFR_0_.Q net184 vdd vdd vss vss gf180mcu_fd_sc_mcu7t5v0__dlyb_1
Xhold52 mem_top_track_16.DFFR_1_.Q net195 vdd vdd vss vss gf180mcu_fd_sc_mcu7t5v0__dlyb_1
Xhold63 mem_top_track_24.DFFR_5_.Q net206 vdd vdd vss vss gf180mcu_fd_sc_mcu7t5v0__dlyb_1
Xhold85 mem_right_track_24.DFFR_0_.Q net228 vdd vdd vss vss gf180mcu_fd_sc_mcu7t5v0__dlyb_1
X_594_ net40 net118 vdd vdd vss vss gf180mcu_fd_sc_mcu7t5v0__clkbuf_1
Xhold96 mem_right_track_32.DFFR_0_.Q net239 vdd vdd vss vss gf180mcu_fd_sc_mcu7t5v0__dlyb_1
XFILLER_0_38_297 vdd vdd vss vss gf180mcu_fd_sc_mcu7t5v0__fillcap_16
XPHY_EDGE_ROW_7_Left_60 vdd vss gf180mcu_fd_sc_mcu7t5v0__endcap
XANTENNA__397__CLK clknet_4_5_0_prog_clk vdd vdd vss vss gf180mcu_fd_sc_mcu7t5v0__antenna
XFILLER_0_6_28 vdd vdd vss vss gf180mcu_fd_sc_mcu7t5v0__fillcap_4
XANTENNA_output105_I net105 vdd vdd vss vss gf180mcu_fd_sc_mcu7t5v0__antenna
Xoutput75 net75 chanx_left_out[5] vdd vdd vss vss gf180mcu_fd_sc_mcu7t5v0__clkbuf_4
XPHY_EDGE_ROW_33_Left_86 vdd vss gf180mcu_fd_sc_mcu7t5v0__endcap
Xoutput64 net64 chanx_left_out[10] vdd vdd vss vss gf180mcu_fd_sc_mcu7t5v0__buf_3
Xoutput97 net97 chany_bottom_out[14] vdd vdd vss vss gf180mcu_fd_sc_mcu7t5v0__buf_3
Xoutput86 net86 chanx_right_out[19] vdd vdd vss vss gf180mcu_fd_sc_mcu7t5v0__buf_3
X_577_ net57 net105 vdd vdd vss vss gf180mcu_fd_sc_mcu7t5v0__clkbuf_1
XFILLER_0_1_301 vdd vdd vss vss gf180mcu_fd_sc_mcu7t5v0__fill_2
XFILLER_0_1_389 vdd vdd vss vss gf180mcu_fd_sc_mcu7t5v0__fill_1
XFILLER_0_1_367 vdd vdd vss vss gf180mcu_fd_sc_mcu7t5v0__fillcap_8
XTAP_TAPCELL_ROW_52_405 vdd vss gf180mcu_fd_sc_mcu7t5v0__filltie
XFILLER_0_49_348 vdd vdd vss vss gf180mcu_fd_sc_mcu7t5v0__fill_2
XFILLER_0_9_401 vdd vdd vss vss gf180mcu_fd_sc_mcu7t5v0__fill_1
XFILLER_0_2_8 vdd vdd vss vss gf180mcu_fd_sc_mcu7t5v0__fill_2
X_500_ net166 _144_ clknet_4_8_0_prog_clk mem_bottom_track_33.DFFR_7_.Q vdd vdd vss
+ vss gf180mcu_fd_sc_mcu7t5v0__dffrnq_1
XFILLER_0_48_381 vdd vdd vss vss gf180mcu_fd_sc_mcu7t5v0__fillcap_4
X_362_ net300 _006_ clknet_4_0_0_prog_clk mem_top_track_0.DFFR_1_.Q vdd vdd vss vss
+ gf180mcu_fd_sc_mcu7t5v0__dffrnq_1
X_431_ net225 _075_ clknet_4_2_0_prog_clk mem_bottom_track_9.DFFR_4_.Q vdd vdd vss
+ vss gf180mcu_fd_sc_mcu7t5v0__dffrnq_1
X_293_ _172_ _102_ vdd vdd vss vss gf180mcu_fd_sc_mcu7t5v0__clkinv_2
XTAP_TAPCELL_ROW_8_160 vdd vss gf180mcu_fd_sc_mcu7t5v0__filltie
XANTENNA__180__I _161_ vdd vdd vss vss gf180mcu_fd_sc_mcu7t5v0__antenna
XANTENNA__355__I _177_ vdd vdd vss vss gf180mcu_fd_sc_mcu7t5v0__antenna
XFILLER_0_13_96 vdd vdd vss vss gf180mcu_fd_sc_mcu7t5v0__fill_2
XFILLER_0_1_131 vdd vdd vss vss gf180mcu_fd_sc_mcu7t5v0__fillcap_4
XFILLER_0_22_281 vdd vdd vss vss gf180mcu_fd_sc_mcu7t5v0__fillcap_4
XFILLER_0_9_220 vdd vdd vss vss gf180mcu_fd_sc_mcu7t5v0__fillcap_4
XFILLER_0_20_229 vdd vdd vss vss gf180mcu_fd_sc_mcu7t5v0__fillcap_4
XTAP_TAPCELL_ROW_5_141 vdd vss gf180mcu_fd_sc_mcu7t5v0__filltie
XTAP_TAPCELL_ROW_28_265 vdd vss gf180mcu_fd_sc_mcu7t5v0__filltie
X_276_ _170_ _087_ vdd vdd vss vss gf180mcu_fd_sc_mcu7t5v0__clkinv_2
X_345_ _160_ _177_ vdd vdd vss vss gf180mcu_fd_sc_mcu7t5v0__buf_4
XFILLER_0_28_329 vdd vdd vss vss gf180mcu_fd_sc_mcu7t5v0__fill_1
X_414_ net282 _058_ clknet_4_6_0_prog_clk mem_right_track_24.DFFR_5_.Q vdd vdd vss
+ vss gf180mcu_fd_sc_mcu7t5v0__dffrnq_1
XFILLER_0_51_387 vdd vdd vss vss gf180mcu_fd_sc_mcu7t5v0__fill_1
XFILLER_0_51_365 vdd vdd vss vss gf180mcu_fd_sc_mcu7t5v0__fill_2
XFILLER_0_51_354 vdd vdd vss vss gf180mcu_fd_sc_mcu7t5v0__fill_1
Xclkbuf_4_6_0_prog_clk clknet_0_prog_clk clknet_4_6_0_prog_clk vdd vdd vss vss gf180mcu_fd_sc_mcu7t5v0__clkbuf_8
XTAP_TAPCELL_ROW_11_176 vdd vss gf180mcu_fd_sc_mcu7t5v0__filltie
XPHY_EDGE_ROW_20_Left_73 vdd vss gf180mcu_fd_sc_mcu7t5v0__endcap
XFILLER_0_40_83 vdd vdd vss vss gf180mcu_fd_sc_mcu7t5v0__fillcap_4
XFILLER_0_42_387 vdd vdd vss vss gf180mcu_fd_sc_mcu7t5v0__fillcap_8
XFILLER_0_10_284 vdd vdd vss vss gf180mcu_fd_sc_mcu7t5v0__fill_1
XPHY_EDGE_ROW_12_Right_12 vdd vss gf180mcu_fd_sc_mcu7t5v0__endcap
XANTENNA_input29_I chanx_right_in[6] vdd vdd vss vss gf180mcu_fd_sc_mcu7t5v0__antenna
XTAP_TAPCELL_ROW_2_122 vdd vss gf180mcu_fd_sc_mcu7t5v0__filltie
XPHY_EDGE_ROW_21_Right_21 vdd vss gf180mcu_fd_sc_mcu7t5v0__endcap
XPHY_EDGE_ROW_30_Right_30 vdd vss gf180mcu_fd_sc_mcu7t5v0__endcap
XTAP_TAPCELL_ROW_16_202 vdd vss gf180mcu_fd_sc_mcu7t5v0__filltie
XFILLER_0_3_204 vdd vdd vss vss gf180mcu_fd_sc_mcu7t5v0__fill_2
XFILLER_0_3_226 vdd vdd vss vss gf180mcu_fd_sc_mcu7t5v0__fillcap_16
X_259_ _169_ _071_ vdd vdd vss vss gf180mcu_fd_sc_mcu7t5v0__clkinv_2
X_328_ _175_ _134_ vdd vdd vss vss gf180mcu_fd_sc_mcu7t5v0__clkinv_2
XFILLER_0_10_31 vdd vdd vss vss gf180mcu_fd_sc_mcu7t5v0__fillcap_4
XTAP_TAPCELL_ROW_39_327 vdd vss gf180mcu_fd_sc_mcu7t5v0__filltie
XTAP_TAPCELL_ROW_47_371 vdd vss gf180mcu_fd_sc_mcu7t5v0__filltie
XFILLER_0_35_72 vdd vdd vss vss gf180mcu_fd_sc_mcu7t5v0__fillcap_4
XFILLER_0_42_151 vdd vdd vss vss gf180mcu_fd_sc_mcu7t5v0__fill_2
XFILLER_0_12_313 vdd vdd vss vss gf180mcu_fd_sc_mcu7t5v0__fill_2
XFILLER_0_16_107 vdd vdd vss vss gf180mcu_fd_sc_mcu7t5v0__fill_2
XFILLER_0_12_368 vdd vdd vss vss gf180mcu_fd_sc_mcu7t5v0__fill_2
XTAP_TAPCELL_ROW_50_388 vdd vss gf180mcu_fd_sc_mcu7t5v0__filltie
XFILLER_0_47_276 vdd vdd vss vss gf180mcu_fd_sc_mcu7t5v0__fillcap_4
Xhold86 mem_left_track_33.DFFR_5_.Q net229 vdd vdd vss vss gf180mcu_fd_sc_mcu7t5v0__dlyb_1
Xhold97 mem_right_track_8.DFFR_4_.Q net240 vdd vdd vss vss gf180mcu_fd_sc_mcu7t5v0__dlyb_1
Xhold31 mem_right_track_24.DFFR_5_.Q net174 vdd vdd vss vss gf180mcu_fd_sc_mcu7t5v0__dlyb_1
Xhold53 mem_bottom_track_25.DFFR_4_.Q net196 vdd vdd vss vss gf180mcu_fd_sc_mcu7t5v0__dlyb_1
Xhold64 mem_bottom_track_33.DFFR_0_.Q net207 vdd vdd vss vss gf180mcu_fd_sc_mcu7t5v0__dlyb_1
Xhold75 mem_bottom_track_1.DFFR_6_.Q net218 vdd vdd vss vss gf180mcu_fd_sc_mcu7t5v0__dlyb_1
Xhold42 mem_top_track_24.DFFR_7_.Q net185 vdd vdd vss vss gf180mcu_fd_sc_mcu7t5v0__dlyb_1
Xhold20 mem_top_track_32.DFFR_2_.Q net163 vdd vdd vss vss gf180mcu_fd_sc_mcu7t5v0__dlyb_1
XPHY_EDGE_ROW_51_Left_104 vdd vss gf180mcu_fd_sc_mcu7t5v0__endcap
X_593_ net41 net119 vdd vdd vss vss gf180mcu_fd_sc_mcu7t5v0__clkbuf_1
XANTENNA__183__I _162_ vdd vdd vss vss gf180mcu_fd_sc_mcu7t5v0__antenna
XFILLER_0_16_41 vdd vdd vss vss gf180mcu_fd_sc_mcu7t5v0__fill_2
XFILLER_0_16_96 vdd vdd vss vss gf180mcu_fd_sc_mcu7t5v0__fill_2
XFILLER_0_32_51 vdd vdd vss vss gf180mcu_fd_sc_mcu7t5v0__fill_1
XFILLER_0_8_104 vdd vdd vss vss gf180mcu_fd_sc_mcu7t5v0__fill_1
XFILLER_0_4_398 vdd vdd vss vss gf180mcu_fd_sc_mcu7t5v0__fillcap_4
XFILLER_0_4_387 vdd vdd vss vss gf180mcu_fd_sc_mcu7t5v0__fill_1
XFILLER_0_4_376 vdd vdd vss vss gf180mcu_fd_sc_mcu7t5v0__fillcap_8
XPHY_EDGE_ROW_6_Right_6 vdd vss gf180mcu_fd_sc_mcu7t5v0__endcap
XANTENNA_input11_I chanx_left_in[2] vdd vdd vss vss gf180mcu_fd_sc_mcu7t5v0__antenna
XANTENNA__268__I _161_ vdd vdd vss vss gf180mcu_fd_sc_mcu7t5v0__antenna
XFILLER_0_50_227 vdd vdd vss vss gf180mcu_fd_sc_mcu7t5v0__fillcap_16
XFILLER_0_35_279 vdd vdd vss vss gf180mcu_fd_sc_mcu7t5v0__fill_1
Xoutput65 net65 chanx_left_out[11] vdd vdd vss vss gf180mcu_fd_sc_mcu7t5v0__buf_3
Xoutput98 net98 chany_bottom_out[15] vdd vdd vss vss gf180mcu_fd_sc_mcu7t5v0__clkbuf_4
Xoutput76 net76 chanx_left_out[6] vdd vdd vss vss gf180mcu_fd_sc_mcu7t5v0__buf_3
Xoutput87 net87 chanx_right_out[1] vdd vdd vss vss gf180mcu_fd_sc_mcu7t5v0__buf_3
X_576_ net58 net106 vdd vdd vss vss gf180mcu_fd_sc_mcu7t5v0__clkbuf_1
XFILLER_0_1_313 vdd vdd vss vss gf180mcu_fd_sc_mcu7t5v0__fill_2
XANTENNA_input3_I chanx_left_in[10] vdd vdd vss vss gf180mcu_fd_sc_mcu7t5v0__antenna
XTAP_TAPCELL_ROW_52_406 vdd vss gf180mcu_fd_sc_mcu7t5v0__filltie
XFILLER_0_43_72 vdd vdd vss vss gf180mcu_fd_sc_mcu7t5v0__fillcap_32
XANTENNA_input59_I chany_top_in[6] vdd vdd vss vss gf180mcu_fd_sc_mcu7t5v0__antenna
XFILLER_0_7_72 vdd vdd vss vss gf180mcu_fd_sc_mcu7t5v0__fillcap_64
XFILLER_0_48_393 vdd vdd vss vss gf180mcu_fd_sc_mcu7t5v0__fill_2
X_361_ net255 _005_ clknet_4_0_0_prog_clk mem_top_track_0.DFFR_2_.Q vdd vdd vss vss
+ gf180mcu_fd_sc_mcu7t5v0__dffrnq_1
X_430_ net182 _074_ clknet_4_8_0_prog_clk mem_bottom_track_9.DFFR_5_.Q vdd vdd vss
+ vss gf180mcu_fd_sc_mcu7t5v0__dffrnq_1
X_292_ _172_ _101_ vdd vdd vss vss gf180mcu_fd_sc_mcu7t5v0__clkinv_2
XFILLER_0_31_282 vdd vdd vss vss gf180mcu_fd_sc_mcu7t5v0__fillcap_4
X_559_ net15 net93 vdd vdd vss vss gf180mcu_fd_sc_mcu7t5v0__clkbuf_1
XFILLER_0_39_360 vdd vdd vss vss gf180mcu_fd_sc_mcu7t5v0__fill_1
XFILLER_0_38_61 vdd vdd vss vss gf180mcu_fd_sc_mcu7t5v0__fill_2
XFILLER_0_45_385 vdd vdd vss vss gf180mcu_fd_sc_mcu7t5v0__fill_1
XFILLER_0_45_352 vdd vdd vss vss gf180mcu_fd_sc_mcu7t5v0__fillcap_8
XTAP_TAPCELL_ROW_5_142 vdd vss gf180mcu_fd_sc_mcu7t5v0__filltie
Xhold150 mem_top_track_8.DFFR_4_.Q net293 vdd vdd vss vss gf180mcu_fd_sc_mcu7t5v0__dlyb_1
X_413_ net174 _057_ clknet_4_12_0_prog_clk mem_right_track_24.DFFR_6_.Q vdd vdd vss
+ vss gf180mcu_fd_sc_mcu7t5v0__dffrnq_1
XTAP_TAPCELL_ROW_28_266 vdd vss gf180mcu_fd_sc_mcu7t5v0__filltie
X_275_ _170_ _086_ vdd vdd vss vss gf180mcu_fd_sc_mcu7t5v0__clkinv_2
X_344_ _176_ _149_ vdd vdd vss vss gf180mcu_fd_sc_mcu7t5v0__clkinv_2
XANTENNA__402__CLK clknet_4_5_0_prog_clk vdd vdd vss vss gf180mcu_fd_sc_mcu7t5v0__antenna
XFILLER_0_11_208 vdd vdd vss vss gf180mcu_fd_sc_mcu7t5v0__fill_2
XANTENNA__191__I _161_ vdd vdd vss vss gf180mcu_fd_sc_mcu7t5v0__antenna
XFILLER_0_42_311 vdd vdd vss vss gf180mcu_fd_sc_mcu7t5v0__fillcap_4
XFILLER_0_27_352 vdd vdd vss vss gf180mcu_fd_sc_mcu7t5v0__fill_2
XFILLER_0_42_399 vdd vdd vss vss gf180mcu_fd_sc_mcu7t5v0__fill_2
XTAP_TAPCELL_ROW_2_123 vdd vss gf180mcu_fd_sc_mcu7t5v0__filltie
XFILLER_0_18_363 vdd vdd vss vss gf180mcu_fd_sc_mcu7t5v0__fill_1
XFILLER_0_33_399 vdd vdd vss vss gf180mcu_fd_sc_mcu7t5v0__fill_2
XANTENNA__186__I _162_ vdd vdd vss vss gf180mcu_fd_sc_mcu7t5v0__antenna
XTAP_TAPCELL_ROW_16_203 vdd vss gf180mcu_fd_sc_mcu7t5v0__filltie
XFILLER_0_51_163 vdd vdd vss vss gf180mcu_fd_sc_mcu7t5v0__fill_2
XFILLER_0_43_108 vdd vdd vss vss gf180mcu_fd_sc_mcu7t5v0__fill_1
XFILLER_0_10_43 vdd vdd vss vss gf180mcu_fd_sc_mcu7t5v0__fill_1
X_189_ _162_ _008_ vdd vdd vss vss gf180mcu_fd_sc_mcu7t5v0__clkinv_2
X_258_ _169_ _070_ vdd vdd vss vss gf180mcu_fd_sc_mcu7t5v0__clkinv_2
X_327_ _175_ _133_ vdd vdd vss vss gf180mcu_fd_sc_mcu7t5v0__clkinv_2
XFILLER_0_24_399 vdd vdd vss vss gf180mcu_fd_sc_mcu7t5v0__fill_1
XTAP_TAPCELL_ROW_47_372 vdd vss gf180mcu_fd_sc_mcu7t5v0__filltie
XTAP_TAPCELL_ROW_39_328 vdd vss gf180mcu_fd_sc_mcu7t5v0__filltie
XFILLER_0_35_40 vdd vdd vss vss gf180mcu_fd_sc_mcu7t5v0__fill_2
XFILLER_0_51_72 vdd vdd vss vss gf180mcu_fd_sc_mcu7t5v0__fillcap_64
XFILLER_0_42_185 vdd vdd vss vss gf180mcu_fd_sc_mcu7t5v0__fill_2
XFILLER_0_42_174 vdd vdd vss vss gf180mcu_fd_sc_mcu7t5v0__fill_1
XFILLER_0_2_260 vdd vdd vss vss gf180mcu_fd_sc_mcu7t5v0__fill_2
XANTENNA_input41_I chany_bottom_in[2] vdd vdd vss vss gf180mcu_fd_sc_mcu7t5v0__antenna
XTAP_TAPCELL_ROW_36_309 vdd vss gf180mcu_fd_sc_mcu7t5v0__filltie
XTAP_TAPCELL_ROW_44_353 vdd vss gf180mcu_fd_sc_mcu7t5v0__filltie
XFILLER_0_12_325 vdd vdd vss vss gf180mcu_fd_sc_mcu7t5v0__fill_2
XFILLER_0_1_52 vdd vdd vss vss gf180mcu_fd_sc_mcu7t5v0__fillcap_4
XTAP_TAPCELL_ROW_50_389 vdd vss gf180mcu_fd_sc_mcu7t5v0__filltie
XFILLER_0_7_385 vdd vdd vss vss gf180mcu_fd_sc_mcu7t5v0__fill_1
Xhold65 mem_left_track_25.DFFR_6_.Q net208 vdd vdd vss vss gf180mcu_fd_sc_mcu7t5v0__dlyb_1
Xhold76 mem_right_track_24.DFFR_1_.Q net219 vdd vdd vss vss gf180mcu_fd_sc_mcu7t5v0__dlyb_1
Xhold21 mem_right_track_16.DFFR_4_.Q net164 vdd vdd vss vss gf180mcu_fd_sc_mcu7t5v0__dlyb_1
Xhold10 mem_right_track_0.DFFR_5_.Q net153 vdd vdd vss vss gf180mcu_fd_sc_mcu7t5v0__dlyb_1
X_592_ net42 net120 vdd vdd vss vss gf180mcu_fd_sc_mcu7t5v0__clkbuf_1
Xhold54 mem_bottom_track_17.DFFR_7_.Q net197 vdd vdd vss vss gf180mcu_fd_sc_mcu7t5v0__dlyb_1
Xhold98 mem_bottom_track_33.DFFR_5_.Q net241 vdd vdd vss vss gf180mcu_fd_sc_mcu7t5v0__dlyb_1
Xhold32 mem_bottom_track_33.DFFR_7_.Q net175 vdd vdd vss vss gf180mcu_fd_sc_mcu7t5v0__dlyb_1
Xhold43 mem_left_track_1.DFFR_7_.Q net186 vdd vdd vss vss gf180mcu_fd_sc_mcu7t5v0__dlyb_1
Xhold87 mem_bottom_track_33.DFFR_2_.Q net230 vdd vdd vss vss gf180mcu_fd_sc_mcu7t5v0__dlyb_1
XFILLER_0_38_255 vdd vdd vss vss gf180mcu_fd_sc_mcu7t5v0__fill_1
XFILLER_0_44_247 vdd vdd vss vss gf180mcu_fd_sc_mcu7t5v0__fillcap_64
XFILLER_0_4_311 vdd vdd vss vss gf180mcu_fd_sc_mcu7t5v0__fillcap_4
XFILLER_0_12_177 vdd vdd vss vss gf180mcu_fd_sc_mcu7t5v0__fillcap_8
XFILLER_0_32_2 vdd vdd vss vss gf180mcu_fd_sc_mcu7t5v0__fill_2
XFILLER_0_35_258 vdd vdd vss vss gf180mcu_fd_sc_mcu7t5v0__fillcap_4
Xoutput77 net77 chanx_left_out[7] vdd vdd vss vss gf180mcu_fd_sc_mcu7t5v0__buf_3
Xoutput66 net66 chanx_left_out[13] vdd vdd vss vss gf180mcu_fd_sc_mcu7t5v0__buf_3
Xoutput88 net88 chanx_right_out[2] vdd vdd vss vss gf180mcu_fd_sc_mcu7t5v0__buf_3
Xoutput99 net99 chany_bottom_out[17] vdd vdd vss vss gf180mcu_fd_sc_mcu7t5v0__clkbuf_3
X_575_ net59 net107 vdd vdd vss vss gf180mcu_fd_sc_mcu7t5v0__clkbuf_1
XFILLER_0_26_247 vdd vdd vss vss gf180mcu_fd_sc_mcu7t5v0__fill_2
XFILLER_0_1_358 vdd vdd vss vss gf180mcu_fd_sc_mcu7t5v0__fill_2
XTAP_TAPCELL_ROW_52_407 vdd vss gf180mcu_fd_sc_mcu7t5v0__filltie
XFILLER_0_49_328 vdd vdd vss vss gf180mcu_fd_sc_mcu7t5v0__fill_2
XFILLER_0_32_217 vdd vdd vss vss gf180mcu_fd_sc_mcu7t5v0__fill_2
XFILLER_0_40_283 vdd vdd vss vss gf180mcu_fd_sc_mcu7t5v0__fillcap_32
XANTENNA__279__I _161_ vdd vdd vss vss gf180mcu_fd_sc_mcu7t5v0__antenna
X_360_ net191 _004_ clknet_4_0_0_prog_clk mem_top_track_0.DFFR_3_.Q vdd vdd vss vss
+ gf180mcu_fd_sc_mcu7t5v0__dffrnq_1
X_291_ _172_ _100_ vdd vdd vss vss gf180mcu_fd_sc_mcu7t5v0__clkinv_2
XANTENNA__189__I _162_ vdd vdd vss vss gf180mcu_fd_sc_mcu7t5v0__antenna
X_558_ net16 net79 vdd vdd vss vss gf180mcu_fd_sc_mcu7t5v0__clkbuf_1
XFILLER_0_13_65 vdd vdd vss vss gf180mcu_fd_sc_mcu7t5v0__fill_2
XFILLER_0_13_76 vdd vdd vss vss gf180mcu_fd_sc_mcu7t5v0__fillcap_16
XFILLER_0_13_98 vdd vdd vss vss gf180mcu_fd_sc_mcu7t5v0__fill_1
X_489_ net187 _133_ clknet_4_3_0_prog_clk mem_top_track_32.DFFR_2_.Q vdd vdd vss vss
+ gf180mcu_fd_sc_mcu7t5v0__dffrnq_1
XFILLER_0_1_111 vdd vdd vss vss gf180mcu_fd_sc_mcu7t5v0__fill_2
XFILLER_0_1_155 vdd vdd vss vss gf180mcu_fd_sc_mcu7t5v0__fill_2
XFILLER_0_49_136 vdd vdd vss vss gf180mcu_fd_sc_mcu7t5v0__fillcap_4
Xhold140 mem_right_track_0.DFFR_4_.Q net283 vdd vdd vss vss gf180mcu_fd_sc_mcu7t5v0__dlyb_1
Xhold151 mem_bottom_track_25.DFFR_5_.Q net294 vdd vdd vss vss gf180mcu_fd_sc_mcu7t5v0__dlyb_1
XFILLER_0_13_294 vdd vdd vss vss gf180mcu_fd_sc_mcu7t5v0__fill_1
XTAP_TAPCELL_ROW_5_143 vdd vss gf180mcu_fd_sc_mcu7t5v0__filltie
X_412_ net169 _056_ clknet_4_6_0_prog_clk mem_right_track_24.DFFR_7_.Q vdd vdd vss
+ vss gf180mcu_fd_sc_mcu7t5v0__dffrnq_1
XTAP_TAPCELL_ROW_28_267 vdd vss gf180mcu_fd_sc_mcu7t5v0__filltie
XFILLER_0_51_323 vdd vdd vss vss gf180mcu_fd_sc_mcu7t5v0__fill_2
XFILLER_0_36_375 vdd vdd vss vss gf180mcu_fd_sc_mcu7t5v0__fill_2
X_274_ _170_ _085_ vdd vdd vss vss gf180mcu_fd_sc_mcu7t5v0__clkinv_2
X_343_ _176_ _148_ vdd vdd vss vss gf180mcu_fd_sc_mcu7t5v0__clkinv_2
XFILLER_0_42_334 vdd vdd vss vss gf180mcu_fd_sc_mcu7t5v0__fillcap_16
XFILLER_0_6_247 vdd vdd vss vss gf180mcu_fd_sc_mcu7t5v0__fillcap_64
XFILLER_0_49_72 vdd vdd vss vss gf180mcu_fd_sc_mcu7t5v0__fillcap_64
XFILLER_0_10_264 vdd vdd vss vss gf180mcu_fd_sc_mcu7t5v0__fillcap_16
XTAP_TAPCELL_ROW_2_124 vdd vss gf180mcu_fd_sc_mcu7t5v0__filltie
XFILLER_0_18_353 vdd vdd vss vss gf180mcu_fd_sc_mcu7t5v0__fillcap_8
XTAP_TAPCELL_ROW_16_204 vdd vss gf180mcu_fd_sc_mcu7t5v0__filltie
X_326_ _175_ _132_ vdd vdd vss vss gf180mcu_fd_sc_mcu7t5v0__clkinv_2
XFILLER_0_51_197 vdd vdd vss vss gf180mcu_fd_sc_mcu7t5v0__fill_2
XFILLER_0_51_142 vdd vdd vss vss gf180mcu_fd_sc_mcu7t5v0__fill_2
X_188_ _162_ _007_ vdd vdd vss vss gf180mcu_fd_sc_mcu7t5v0__clkinv_2
X_257_ _161_ _169_ vdd vdd vss vss gf180mcu_fd_sc_mcu7t5v0__buf_8
XTAP_TAPCELL_ROW_47_373 vdd vss gf180mcu_fd_sc_mcu7t5v0__filltie
XTAP_TAPCELL_ROW_39_329 vdd vss gf180mcu_fd_sc_mcu7t5v0__filltie
XFILLER_0_15_345 vdd vdd vss vss gf180mcu_fd_sc_mcu7t5v0__fillcap_4
XFILLER_0_42_153 vdd vdd vss vss gf180mcu_fd_sc_mcu7t5v0__fill_1
XANTENNA_input34_I chany_bottom_in[12] vdd vdd vss vss gf180mcu_fd_sc_mcu7t5v0__antenna
XTAP_TAPCELL_ROW_44_354 vdd vss gf180mcu_fd_sc_mcu7t5v0__filltie
X_309_ _173_ _117_ vdd vdd vss vss gf180mcu_fd_sc_mcu7t5v0__clkinv_2
XFILLER_0_21_43 vdd vdd vss vss gf180mcu_fd_sc_mcu7t5v0__fill_1
XFILLER_0_12_304 vdd vdd vss vss gf180mcu_fd_sc_mcu7t5v0__fill_2
XFILLER_0_47_212 vdd vdd vss vss gf180mcu_fd_sc_mcu7t5v0__fillcap_64
XFILLER_0_15_131 vdd vdd vss vss gf180mcu_fd_sc_mcu7t5v0__fillcap_8
Xhold22 mem_bottom_track_9.DFFR_1_.Q net165 vdd vdd vss vss gf180mcu_fd_sc_mcu7t5v0__dlyb_1
Xhold11 mem_right_track_32.DFFR_5_.Q net154 vdd vdd vss vss gf180mcu_fd_sc_mcu7t5v0__dlyb_1
Xhold55 mem_right_track_16.DFFR_6_.Q net198 vdd vdd vss vss gf180mcu_fd_sc_mcu7t5v0__dlyb_1
Xhold77 mem_right_track_0.DFFR_7_.Q net220 vdd vdd vss vss gf180mcu_fd_sc_mcu7t5v0__dlyb_1
Xhold99 mem_left_track_25.DFFR_0_.Q net242 vdd vdd vss vss gf180mcu_fd_sc_mcu7t5v0__dlyb_1
X_591_ net43 net121 vdd vdd vss vss gf180mcu_fd_sc_mcu7t5v0__clkbuf_1
Xhold88 mem_bottom_track_17.DFFR_0_.Q net231 vdd vdd vss vss gf180mcu_fd_sc_mcu7t5v0__dlyb_1
Xhold66 mem_bottom_track_1.DFFR_7_.Q net209 vdd vdd vss vss gf180mcu_fd_sc_mcu7t5v0__dlyb_1
Xhold44 mem_top_track_32.DFFR_1_.Q net187 vdd vdd vss vss gf180mcu_fd_sc_mcu7t5v0__dlyb_1
Xhold33 mem_top_track_32.DFFR_3_.Q net176 vdd vdd vss vss gf180mcu_fd_sc_mcu7t5v0__dlyb_1
XFILLER_0_38_223 vdd vdd vss vss gf180mcu_fd_sc_mcu7t5v0__fillcap_16
XFILLER_0_16_43 vdd vdd vss vss gf180mcu_fd_sc_mcu7t5v0__fill_1
XFILLER_0_12_123 vdd vdd vss vss gf180mcu_fd_sc_mcu7t5v0__fill_2
XFILLER_0_25_2 vdd vdd vss vss gf180mcu_fd_sc_mcu7t5v0__fill_1
Xoutput78 net78 chanx_left_out[9] vdd vdd vss vss gf180mcu_fd_sc_mcu7t5v0__buf_3
Xoutput67 net67 chanx_left_out[14] vdd vdd vss vss gf180mcu_fd_sc_mcu7t5v0__buf_3
Xoutput89 net89 chanx_right_out[3] vdd vdd vss vss gf180mcu_fd_sc_mcu7t5v0__buf_3
X_574_ net60 net108 vdd vdd vss vss gf180mcu_fd_sc_mcu7t5v0__clkbuf_1
XANTENNA_clkbuf_4_3_0_prog_clk_I clknet_0_prog_clk vdd vdd vss vss gf180mcu_fd_sc_mcu7t5v0__antenna
XFILLER_0_25_292 vdd vdd vss vss gf180mcu_fd_sc_mcu7t5v0__fill_1
XFILLER_0_48_395 vdd vdd vss vss gf180mcu_fd_sc_mcu7t5v0__fill_1
X_290_ _160_ _172_ vdd vdd vss vss gf180mcu_fd_sc_mcu7t5v0__buf_4