* NGSPICE file created from sb_1__0_.ext - technology: gf180mcuD

* Black-box entry subcircuit for gf180mcu_fd_sc_mcu7t5v0__filltie abstract view
.subckt gf180mcu_fd_sc_mcu7t5v0__filltie VDD VSS
.ends

* Black-box entry subcircuit for gf180mcu_fd_sc_mcu7t5v0__fillcap_4 abstract view
.subckt gf180mcu_fd_sc_mcu7t5v0__fillcap_4 VDD VNW VPW VSS
.ends

* Black-box entry subcircuit for gf180mcu_fd_sc_mcu7t5v0__fill_2 abstract view
.subckt gf180mcu_fd_sc_mcu7t5v0__fill_2 VDD VNW VPW VSS
.ends

* Black-box entry subcircuit for gf180mcu_fd_sc_mcu7t5v0__antenna abstract view
.subckt gf180mcu_fd_sc_mcu7t5v0__antenna I VDD VNW VPW VSS
.ends

* Black-box entry subcircuit for gf180mcu_fd_sc_mcu7t5v0__dffrnq_1 abstract view
.subckt gf180mcu_fd_sc_mcu7t5v0__dffrnq_1 D RN CLK Q VDD VNW VPW VSS
.ends

* Black-box entry subcircuit for gf180mcu_fd_sc_mcu7t5v0__fillcap_32 abstract view
.subckt gf180mcu_fd_sc_mcu7t5v0__fillcap_32 VDD VNW VPW VSS
.ends

* Black-box entry subcircuit for gf180mcu_fd_sc_mcu7t5v0__fillcap_8 abstract view
.subckt gf180mcu_fd_sc_mcu7t5v0__fillcap_8 VDD VNW VPW VSS
.ends

* Black-box entry subcircuit for gf180mcu_fd_sc_mcu7t5v0__fillcap_16 abstract view
.subckt gf180mcu_fd_sc_mcu7t5v0__fillcap_16 VDD VNW VPW VSS
.ends

* Black-box entry subcircuit for gf180mcu_fd_sc_mcu7t5v0__fill_1 abstract view
.subckt gf180mcu_fd_sc_mcu7t5v0__fill_1 VDD VNW VPW VSS
.ends

* Black-box entry subcircuit for gf180mcu_fd_sc_mcu7t5v0__clkbuf_1 abstract view
.subckt gf180mcu_fd_sc_mcu7t5v0__clkbuf_1 I Z VDD VNW VPW VSS
.ends

* Black-box entry subcircuit for gf180mcu_fd_sc_mcu7t5v0__clkinv_4 abstract view
.subckt gf180mcu_fd_sc_mcu7t5v0__clkinv_4 I ZN VDD VNW VPW VSS
.ends

* Black-box entry subcircuit for gf180mcu_fd_sc_mcu7t5v0__fillcap_64 abstract view
.subckt gf180mcu_fd_sc_mcu7t5v0__fillcap_64 VDD VNW VPW VSS
.ends

* Black-box entry subcircuit for gf180mcu_fd_sc_mcu7t5v0__dlyb_1 abstract view
.subckt gf180mcu_fd_sc_mcu7t5v0__dlyb_1 I Z VDD VNW VPW VSS
.ends

* Black-box entry subcircuit for gf180mcu_fd_sc_mcu7t5v0__clkbuf_4 abstract view
.subckt gf180mcu_fd_sc_mcu7t5v0__clkbuf_4 I Z VDD VNW VPW VSS
.ends

* Black-box entry subcircuit for gf180mcu_fd_sc_mcu7t5v0__clkbuf_3 abstract view
.subckt gf180mcu_fd_sc_mcu7t5v0__clkbuf_3 I Z VDD VNW VPW VSS
.ends

* Black-box entry subcircuit for gf180mcu_fd_sc_mcu7t5v0__endcap abstract view
.subckt gf180mcu_fd_sc_mcu7t5v0__endcap VDD VSS
.ends

* Black-box entry subcircuit for gf180mcu_fd_sc_mcu7t5v0__buf_3 abstract view
.subckt gf180mcu_fd_sc_mcu7t5v0__buf_3 I Z VDD VNW VPW VSS
.ends

* Black-box entry subcircuit for gf180mcu_fd_sc_mcu7t5v0__tiel abstract view
.subckt gf180mcu_fd_sc_mcu7t5v0__tiel ZN VDD VNW VPW VSS
.ends

* Black-box entry subcircuit for gf180mcu_fd_sc_mcu7t5v0__clkinv_2 abstract view
.subckt gf180mcu_fd_sc_mcu7t5v0__clkinv_2 I ZN VDD VNW VPW VSS
.ends

* Black-box entry subcircuit for gf180mcu_fd_sc_mcu7t5v0__buf_4 abstract view
.subckt gf180mcu_fd_sc_mcu7t5v0__buf_4 I Z VDD VNW VPW VSS
.ends

* Black-box entry subcircuit for gf180mcu_fd_sc_mcu7t5v0__buf_12 abstract view
.subckt gf180mcu_fd_sc_mcu7t5v0__buf_12 I Z VDD VNW VPW VSS
.ends

* Black-box entry subcircuit for gf180mcu_fd_sc_mcu7t5v0__clkbuf_16 abstract view
.subckt gf180mcu_fd_sc_mcu7t5v0__clkbuf_16 I Z VDD VNW VPW VSS
.ends

.subckt sb_1__0_ ccff_head ccff_tail chanx_left_in[0] chanx_left_in[10] chanx_left_in[11]
+ chanx_left_in[12] chanx_left_in[13] chanx_left_in[14] chanx_left_in[15] chanx_left_in[16]
+ chanx_left_in[17] chanx_left_in[18] chanx_left_in[19] chanx_left_in[1] chanx_left_in[2]
+ chanx_left_in[3] chanx_left_in[4] chanx_left_in[5] chanx_left_in[6] chanx_left_in[7]
+ chanx_left_in[8] chanx_left_in[9] chanx_left_out[0] chanx_left_out[10] chanx_left_out[11]
+ chanx_left_out[13] chanx_left_out[14] chanx_left_out[15] chanx_left_out[17] chanx_left_out[18]
+ chanx_left_out[19] chanx_left_out[1] chanx_left_out[2] chanx_left_out[3] chanx_left_out[4]
+ chanx_left_out[5] chanx_left_out[6] chanx_left_out[7] chanx_left_out[9] chanx_right_in[0]
+ chanx_right_in[10] chanx_right_in[11] chanx_right_in[12] chanx_right_in[13] chanx_right_in[14]
+ chanx_right_in[15] chanx_right_in[16] chanx_right_in[17] chanx_right_in[18] chanx_right_in[19]
+ chanx_right_in[1] chanx_right_in[2] chanx_right_in[3] chanx_right_in[4] chanx_right_in[5]
+ chanx_right_in[6] chanx_right_in[7] chanx_right_in[8] chanx_right_in[9] chanx_right_out[10]
+ chanx_right_out[11] chanx_right_out[13] chanx_right_out[14] chanx_right_out[15]
+ chanx_right_out[17] chanx_right_out[18] chanx_right_out[19] chanx_right_out[1] chanx_right_out[2]
+ chanx_right_out[3] chanx_right_out[5] chanx_right_out[6] chanx_right_out[7] chanx_right_out[8]
+ chanx_right_out[9] chany_top_in[0] chany_top_in[10] chany_top_in[11] chany_top_in[12]
+ chany_top_in[13] chany_top_in[14] chany_top_in[15] chany_top_in[16] chany_top_in[17]
+ chany_top_in[18] chany_top_in[19] chany_top_in[1] chany_top_in[2] chany_top_in[3]
+ chany_top_in[4] chany_top_in[5] chany_top_in[6] chany_top_in[7] chany_top_in[8]
+ chany_top_in[9] chany_top_out[10] chany_top_out[11] chany_top_out[12] chany_top_out[13]
+ chany_top_out[14] chany_top_out[15] chany_top_out[16] chany_top_out[17] chany_top_out[18]
+ left_bottom_grid_top_width_0_height_0_subtile_0__pin_inpad_0_ left_bottom_grid_top_width_0_height_0_subtile_1__pin_inpad_0_
+ left_bottom_grid_top_width_0_height_0_subtile_2__pin_inpad_0_ left_bottom_grid_top_width_0_height_0_subtile_3__pin_inpad_0_
+ left_top_grid_bottom_width_0_height_0_subtile_0__pin_O_2_ left_top_grid_bottom_width_0_height_0_subtile_0__pin_O_6_
+ pReset prog_clk right_bottom_grid_top_width_0_height_0_subtile_0__pin_inpad_0_ right_bottom_grid_top_width_0_height_0_subtile_1__pin_inpad_0_
+ right_bottom_grid_top_width_0_height_0_subtile_2__pin_inpad_0_ right_bottom_grid_top_width_0_height_0_subtile_3__pin_inpad_0_
+ right_top_grid_bottom_width_0_height_0_subtile_0__pin_O_2_ right_top_grid_bottom_width_0_height_0_subtile_0__pin_O_6_
+ top_left_grid_right_width_0_height_0_subtile_0__pin_O_1_ top_left_grid_right_width_0_height_0_subtile_0__pin_O_5_
+ top_right_grid_left_width_0_height_0_subtile_0__pin_O_3_ top_right_grid_left_width_0_height_0_subtile_0__pin_O_7_
+ vdd vss chany_top_out[7] chany_top_out[8] chany_top_out[9] chanx_right_out[12] chanx_right_out[16]
+ chany_top_out[0] chany_top_out[1] chany_top_out[2] chanx_left_out[8] chany_top_out[3]
+ chanx_left_out[12] chany_top_out[4] chany_top_out[19] chanx_left_out[16] chany_top_out[5]
+ chany_top_out[6] chanx_right_out[0] chanx_right_out[4]
XTAP_TAPCELL_ROW_9_148 vdd vss gf180mcu_fd_sc_mcu7t5v0__filltie
XFILLER_0_4_171 vdd vdd vss vss gf180mcu_fd_sc_mcu7t5v0__fillcap_4
XFILLER_0_32_247 vdd vdd vss vss gf180mcu_fd_sc_mcu7t5v0__fill_2
XANTENNA__164__I _117_ vdd vdd vss vss gf180mcu_fd_sc_mcu7t5v0__antenna
X_294_ net169 _044_ clknet_3_5__leaf_prog_clk mem_top_track_24.DFFR_1_.Q vdd vdd vss
+ vss gf180mcu_fd_sc_mcu7t5v0__dffrnq_1
XANTENNA__290__CLK clknet_3_5__leaf_prog_clk vdd vdd vss vss gf180mcu_fd_sc_mcu7t5v0__antenna
XFILLER_0_46_317 vdd vdd vss vss gf180mcu_fd_sc_mcu7t5v0__fillcap_32
XFILLER_0_13_40 vdd vdd vss vss gf180mcu_fd_sc_mcu7t5v0__fillcap_8
XTAP_TAPCELL_ROW_14_172 vdd vss gf180mcu_fd_sc_mcu7t5v0__filltie
XFILLER_0_14_203 vdd vdd vss vss gf180mcu_fd_sc_mcu7t5v0__fill_2
XFILLER_0_14_247 vdd vdd vss vss gf180mcu_fd_sc_mcu7t5v0__fillcap_4
XFILLER_0_38_81 vdd vdd vss vss gf180mcu_fd_sc_mcu7t5v0__fillcap_16
XTAP_TAPCELL_ROW_37_286 vdd vss gf180mcu_fd_sc_mcu7t5v0__filltie
XANTENNA__249__I _113_ vdd vdd vss vss gf180mcu_fd_sc_mcu7t5v0__antenna
XFILLER_0_9_296 vdd vdd vss vss gf180mcu_fd_sc_mcu7t5v0__fillcap_16
XFILLER_0_9_252 vdd vdd vss vss gf180mcu_fd_sc_mcu7t5v0__fill_2
XFILLER_0_20_217 vdd vdd vss vss gf180mcu_fd_sc_mcu7t5v0__fill_1
X_415_ net15 net63 vdd vdd vss vss gf180mcu_fd_sc_mcu7t5v0__clkbuf_1
XTAP_TAPCELL_ROW_28_242 vdd vss gf180mcu_fd_sc_mcu7t5v0__filltie
XFILLER_0_28_317 vdd vdd vss vss gf180mcu_fd_sc_mcu7t5v0__fill_2
X_346_ net164 _096_ clknet_3_2__leaf_prog_clk mem_left_track_17.DFFR_3_.Q vdd vdd
+ vss vss gf180mcu_fd_sc_mcu7t5v0__dffrnq_1
XFILLER_0_36_350 vdd vdd vss vss gf180mcu_fd_sc_mcu7t5v0__fillcap_16
X_277_ net157 _027_ clknet_3_1__leaf_prog_clk mem_top_track_10.DFFR_0_.Q vdd vdd vss
+ vss gf180mcu_fd_sc_mcu7t5v0__dffrnq_1
XFILLER_0_46_147 vdd vdd vss vss gf180mcu_fd_sc_mcu7t5v0__fillcap_8
XFILLER_0_37_158 vdd vdd vss vss gf180mcu_fd_sc_mcu7t5v0__fill_2
XFILLER_0_37_136 vdd vdd vss vss gf180mcu_fd_sc_mcu7t5v0__fillcap_4
X_200_ _120_ _066_ vdd vdd vss vss gf180mcu_fd_sc_mcu7t5v0__clkinv_4
XFILLER_0_33_364 vdd vdd vss vss gf180mcu_fd_sc_mcu7t5v0__fill_2
X_131_ _114_ _003_ vdd vdd vss vss gf180mcu_fd_sc_mcu7t5v0__clkinv_4
XFILLER_0_25_309 vdd vdd vss vss gf180mcu_fd_sc_mcu7t5v0__fill_1
XFILLER_0_45_16 vdd vdd vss vss gf180mcu_fd_sc_mcu7t5v0__fillcap_4
X_329_ net136 _079_ clknet_3_6__leaf_prog_clk mem_right_track_24.DFFR_2_.Q vdd vdd
+ vss vss gf180mcu_fd_sc_mcu7t5v0__dffrnq_1
XFILLER_0_28_169 vdd vdd vss vss gf180mcu_fd_sc_mcu7t5v0__fill_2
XTAP_TAPCELL_ROW_31_259 vdd vss gf180mcu_fd_sc_mcu7t5v0__filltie
XFILLER_0_24_364 vdd vdd vss vss gf180mcu_fd_sc_mcu7t5v0__fill_2
XFILLER_0_19_72 vdd vdd vss vss gf180mcu_fd_sc_mcu7t5v0__fill_2
XTAP_TAPCELL_ROW_22_215 vdd vss gf180mcu_fd_sc_mcu7t5v0__filltie
XFILLER_0_15_364 vdd vdd vss vss gf180mcu_fd_sc_mcu7t5v0__fill_2
XTAP_TAPCELL_ROW_45_329 vdd vss gf180mcu_fd_sc_mcu7t5v0__filltie
XFILLER_0_15_19 vdd vdd vss vss gf180mcu_fd_sc_mcu7t5v0__fillcap_8
XANTENNA__351__CLK clknet_3_3__leaf_prog_clk vdd vdd vss vss gf180mcu_fd_sc_mcu7t5v0__antenna
XFILLER_0_25_139 vdd vdd vss vss gf180mcu_fd_sc_mcu7t5v0__fill_1
XFILLER_0_0_206 vdd vdd vss vss gf180mcu_fd_sc_mcu7t5v0__fillcap_32
XANTENNA__172__I _118_ vdd vdd vss vss gf180mcu_fd_sc_mcu7t5v0__antenna
XFILLER_0_18_191 vdd vdd vss vss gf180mcu_fd_sc_mcu7t5v0__fill_1
XFILLER_0_33_150 vdd vdd vss vss gf180mcu_fd_sc_mcu7t5v0__fill_1
XFILLER_0_8_317 vdd vdd vss vss gf180mcu_fd_sc_mcu7t5v0__fillcap_16
XFILLER_0_16_117 vdd vdd vss vss gf180mcu_fd_sc_mcu7t5v0__fill_1
XFILLER_0_1_72 vdd vdd vss vss gf180mcu_fd_sc_mcu7t5v0__fillcap_64
XFILLER_0_15_150 vdd vdd vss vss gf180mcu_fd_sc_mcu7t5v0__fill_1
Xhold63 mem_right_track_32.DFFR_3_.Q net159 vdd vdd vss vss gf180mcu_fd_sc_mcu7t5v0__dlyb_1
Xhold74 mem_top_track_6.DFFR_3_.Q net170 vdd vdd vss vss gf180mcu_fd_sc_mcu7t5v0__dlyb_1
Xhold41 mem_top_track_4.DFFR_5_.Q net137 vdd vdd vss vss gf180mcu_fd_sc_mcu7t5v0__dlyb_1
Xhold30 mem_top_track_22.DFFR_1_.Q net126 vdd vdd vss vss gf180mcu_fd_sc_mcu7t5v0__dlyb_1
Xhold52 mem_left_track_1.DFFR_5_.Q net148 vdd vdd vss vss gf180mcu_fd_sc_mcu7t5v0__dlyb_1
XFILLER_0_38_220 vdd vdd vss vss gf180mcu_fd_sc_mcu7t5v0__fillcap_8
Xhold96 mem_top_track_4.DFFR_2_.Q net192 vdd vdd vss vss gf180mcu_fd_sc_mcu7t5v0__dlyb_1
Xhold85 mem_right_track_0.DFFR_1_.Q net181 vdd vdd vss vss gf180mcu_fd_sc_mcu7t5v0__dlyb_1
XANTENNA__167__I _117_ vdd vdd vss vss gf180mcu_fd_sc_mcu7t5v0__antenna
XTAP_TAPCELL_ROW_41_310 vdd vss gf180mcu_fd_sc_mcu7t5v0__filltie
XFILLER_0_38_297 vdd vdd vss vss gf180mcu_fd_sc_mcu7t5v0__fillcap_16
XFILLER_0_6_28 vdd vdd vss vss gf180mcu_fd_sc_mcu7t5v0__fillcap_4
XFILLER_0_8_158 vdd vdd vss vss gf180mcu_fd_sc_mcu7t5v0__fill_2
XFILLER_0_35_212 vdd vdd vss vss gf180mcu_fd_sc_mcu7t5v0__fill_2
Xoutput64 net64 chanx_right_out[6] vdd vdd vss vss gf180mcu_fd_sc_mcu7t5v0__clkbuf_4
Xoutput42 net42 chanx_left_out[17] vdd vdd vss vss gf180mcu_fd_sc_mcu7t5v0__clkbuf_3
Xoutput53 net53 chanx_right_out[11] vdd vdd vss vss gf180mcu_fd_sc_mcu7t5v0__clkbuf_4
XFILLER_0_5_139 vdd vdd vss vss gf180mcu_fd_sc_mcu7t5v0__fill_1
XANTENNA_clkbuf_3_7__f_prog_clk_I clknet_0_prog_clk vdd vdd vss vss gf180mcu_fd_sc_mcu7t5v0__antenna
XFILLER_0_27_72 vdd vdd vss vss gf180mcu_fd_sc_mcu7t5v0__fillcap_4
XTAP_TAPCELL_ROW_9_149 vdd vss gf180mcu_fd_sc_mcu7t5v0__filltie
XFILLER_0_7_93 vdd vdd vss vss gf180mcu_fd_sc_mcu7t5v0__fill_1
X_293_ net195 _043_ clknet_3_5__leaf_prog_clk mem_top_track_22.DFFR_0_.Q vdd vdd vss
+ vss gf180mcu_fd_sc_mcu7t5v0__dffrnq_1
XANTENNA__180__I _118_ vdd vdd vss vss gf180mcu_fd_sc_mcu7t5v0__antenna
XFILLER_0_13_52 vdd vdd vss vss gf180mcu_fd_sc_mcu7t5v0__fill_2
XTAP_TAPCELL_ROW_14_173 vdd vss gf180mcu_fd_sc_mcu7t5v0__filltie
XFILLER_0_1_142 vdd vdd vss vss gf180mcu_fd_sc_mcu7t5v0__fillcap_64
XFILLER_0_37_329 vdd vdd vss vss gf180mcu_fd_sc_mcu7t5v0__fill_2
XTAP_TAPCELL_ROW_37_287 vdd vss gf180mcu_fd_sc_mcu7t5v0__filltie
XANTENNA__308__CLK clknet_3_6__leaf_prog_clk vdd vdd vss vss gf180mcu_fd_sc_mcu7t5v0__antenna
XTAP_TAPCELL_ROW_5_130 vdd vss gf180mcu_fd_sc_mcu7t5v0__filltie
XTAP_TAPCELL_ROW_28_243 vdd vss gf180mcu_fd_sc_mcu7t5v0__filltie
XFILLER_0_34_18 vdd vdd vss vss gf180mcu_fd_sc_mcu7t5v0__fill_2
X_414_ net16 net64 vdd vdd vss vss gf180mcu_fd_sc_mcu7t5v0__clkbuf_1
XANTENNA__175__I _118_ vdd vdd vss vss gf180mcu_fd_sc_mcu7t5v0__antenna
X_276_ net191 _026_ clknet_3_1__leaf_prog_clk mem_top_track_10.DFFR_1_.Q vdd vdd vss
+ vss gf180mcu_fd_sc_mcu7t5v0__dffrnq_1
X_345_ net123 _095_ clknet_3_3__leaf_prog_clk mem_left_track_17.DFFR_4_.Q vdd vdd
+ vss vss gf180mcu_fd_sc_mcu7t5v0__dffrnq_1
XFILLER_0_24_62 vdd vdd vss vss gf180mcu_fd_sc_mcu7t5v0__fillcap_8
XPHY_EDGE_ROW_12_Right_12 vdd vss gf180mcu_fd_sc_mcu7t5v0__endcap
XANTENNA_input29_I chanx_right_in[2] vdd vdd vss vss gf180mcu_fd_sc_mcu7t5v0__antenna
XTAP_TAPCELL_ROW_2_111 vdd vss gf180mcu_fd_sc_mcu7t5v0__filltie
XPHY_EDGE_ROW_21_Right_21 vdd vss gf180mcu_fd_sc_mcu7t5v0__endcap
X_130_ _114_ _002_ vdd vdd vss vss gf180mcu_fd_sc_mcu7t5v0__clkinv_4
XPHY_EDGE_ROW_30_Right_30 vdd vss gf180mcu_fd_sc_mcu7t5v0__endcap
XFILLER_0_28_115 vdd vdd vss vss gf180mcu_fd_sc_mcu7t5v0__fillcap_4
X_328_ net184 _078_ clknet_3_6__leaf_prog_clk mem_right_track_24.DFFR_3_.Q vdd vdd
+ vss vss gf180mcu_fd_sc_mcu7t5v0__dffrnq_1
XFILLER_0_36_181 vdd vdd vss vss gf180mcu_fd_sc_mcu7t5v0__fillcap_8
X_259_ net151 _009_ clknet_3_0__leaf_prog_clk mem_top_track_2.DFFR_2_.Q vdd vdd vss
+ vss gf180mcu_fd_sc_mcu7t5v0__dffrnq_1
XFILLER_0_24_321 vdd vdd vss vss gf180mcu_fd_sc_mcu7t5v0__fill_2
XFILLER_0_10_53 vdd vdd vss vss gf180mcu_fd_sc_mcu7t5v0__fill_2
XFILLER_0_35_72 vdd vdd vss vss gf180mcu_fd_sc_mcu7t5v0__fill_2
XFILLER_0_21_335 vdd vdd vss vss gf180mcu_fd_sc_mcu7t5v0__fill_2
XFILLER_0_24_162 vdd vdd vss vss gf180mcu_fd_sc_mcu7t5v0__fill_2
XFILLER_0_30_187 vdd vdd vss vss gf180mcu_fd_sc_mcu7t5v0__fillcap_16
Xhold75 mem_right_track_8.DFFR_2_.Q net171 vdd vdd vss vss gf180mcu_fd_sc_mcu7t5v0__dlyb_1
Xhold86 mem_top_track_6.DFFR_5_.Q net182 vdd vdd vss vss gf180mcu_fd_sc_mcu7t5v0__dlyb_1
Xhold42 mem_top_track_8.DFFR_0_.Q net138 vdd vdd vss vss gf180mcu_fd_sc_mcu7t5v0__dlyb_1
Xhold53 mem_top_track_2.DFFR_5_.Q net149 vdd vdd vss vss gf180mcu_fd_sc_mcu7t5v0__dlyb_1
Xhold31 mem_top_track_2.DFFR_4_.Q net127 vdd vdd vss vss gf180mcu_fd_sc_mcu7t5v0__dlyb_1
Xhold20 mem_top_track_2.DFFR_0_.Q net116 vdd vdd vss vss gf180mcu_fd_sc_mcu7t5v0__dlyb_1
Xhold97 mem_left_track_25.DFFR_3_.Q net193 vdd vdd vss vss gf180mcu_fd_sc_mcu7t5v0__dlyb_1
Xhold64 mem_left_track_25.DFFR_4_.Q net160 vdd vdd vss vss gf180mcu_fd_sc_mcu7t5v0__dlyb_1
XFILLER_0_38_276 vdd vdd vss vss gf180mcu_fd_sc_mcu7t5v0__fill_2
XFILLER_0_16_96 vdd vdd vss vss gf180mcu_fd_sc_mcu7t5v0__fillcap_8
XPHY_EDGE_ROW_6_Right_6 vdd vss gf180mcu_fd_sc_mcu7t5v0__endcap
XFILLER_0_4_365 vdd vdd vss vss gf180mcu_fd_sc_mcu7t5v0__fill_1
XFILLER_0_12_187 vdd vdd vss vss gf180mcu_fd_sc_mcu7t5v0__fill_2
XANTENNA__341__CLK clknet_3_2__leaf_prog_clk vdd vdd vss vss gf180mcu_fd_sc_mcu7t5v0__antenna
XANTENNA_input11_I chanx_left_in[18] vdd vdd vss vss gf180mcu_fd_sc_mcu7t5v0__antenna
Xoutput65 net65 chanx_right_out[7] vdd vdd vss vss gf180mcu_fd_sc_mcu7t5v0__buf_3
XFILLER_0_9_2 vdd vdd vss vss gf180mcu_fd_sc_mcu7t5v0__fillcap_32
Xoutput43 net43 chanx_left_out[18] vdd vdd vss vss gf180mcu_fd_sc_mcu7t5v0__clkbuf_4
Xoutput54 net54 chanx_right_out[13] vdd vdd vss vss gf180mcu_fd_sc_mcu7t5v0__buf_3
XANTENNA__178__I _118_ vdd vdd vss vss gf180mcu_fd_sc_mcu7t5v0__antenna
XFILLER_0_26_202 vdd vdd vss vss gf180mcu_fd_sc_mcu7t5v0__fillcap_8
XFILLER_0_1_346 vdd vdd vss vss gf180mcu_fd_sc_mcu7t5v0__fillcap_4
XFILLER_0_26_257 vdd vdd vss vss gf180mcu_fd_sc_mcu7t5v0__fill_1
XANTENNA_input3_I chanx_left_in[10] vdd vdd vss vss gf180mcu_fd_sc_mcu7t5v0__antenna
XFILLER_0_27_40 vdd vdd vss vss gf180mcu_fd_sc_mcu7t5v0__fill_2
XFILLER_0_43_72 vdd vdd vss vss gf180mcu_fd_sc_mcu7t5v0__fillcap_64
XFILLER_0_17_246 vdd vdd vss vss gf180mcu_fd_sc_mcu7t5v0__fillcap_8
XFILLER_0_17_279 vdd vdd vss vss gf180mcu_fd_sc_mcu7t5v0__fill_1
XFILLER_0_7_72 vdd vdd vss vss gf180mcu_fd_sc_mcu7t5v0__fill_1
XFILLER_0_7_83 vdd vdd vss vss gf180mcu_fd_sc_mcu7t5v0__fillcap_8
XFILLER_0_25_290 vdd vdd vss vss gf180mcu_fd_sc_mcu7t5v0__fill_1
X_292_ net132 _042_ clknet_3_5__leaf_prog_clk mem_top_track_22.DFFR_1_.Q vdd vdd vss
+ vss gf180mcu_fd_sc_mcu7t5v0__dffrnq_1
X_361_ net187 _111_ clknet_3_2__leaf_prog_clk mem_left_track_33.DFFR_0_.Q vdd vdd
+ vss vss gf180mcu_fd_sc_mcu7t5v0__dffrnq_1
Xsb_1__0__90 chanx_right_out[4] vdd vdd vss vss gf180mcu_fd_sc_mcu7t5v0__tiel
XFILLER_0_31_260 vdd vdd vss vss gf180mcu_fd_sc_mcu7t5v0__fillcap_16
XFILLER_0_31_282 vdd vdd vss vss gf180mcu_fd_sc_mcu7t5v0__fillcap_8
XFILLER_0_39_360 vdd vdd vss vss gf180mcu_fd_sc_mcu7t5v0__fillcap_4
XFILLER_0_13_97 vdd vdd vss vss gf180mcu_fd_sc_mcu7t5v0__fillcap_8
XTAP_TAPCELL_ROW_14_174 vdd vss gf180mcu_fd_sc_mcu7t5v0__filltie
XFILLER_0_38_61 vdd vdd vss vss gf180mcu_fd_sc_mcu7t5v0__fillcap_4
XTAP_TAPCELL_ROW_37_288 vdd vss gf180mcu_fd_sc_mcu7t5v0__filltie
XFILLER_0_9_276 vdd vdd vss vss gf180mcu_fd_sc_mcu7t5v0__fill_2
XFILLER_0_45_352 vdd vdd vss vss gf180mcu_fd_sc_mcu7t5v0__fillcap_8
X_413_ net17 net65 vdd vdd vss vss gf180mcu_fd_sc_mcu7t5v0__clkbuf_1
XTAP_TAPCELL_ROW_28_244 vdd vss gf180mcu_fd_sc_mcu7t5v0__filltie
X_275_ net182 _025_ clknet_3_1__leaf_prog_clk mem_top_track_8.DFFR_0_.Q vdd vdd vss
+ vss gf180mcu_fd_sc_mcu7t5v0__dffrnq_1
X_344_ net112 _094_ clknet_3_2__leaf_prog_clk mem_left_track_17.DFFR_5_.Q vdd vdd
+ vss vss gf180mcu_fd_sc_mcu7t5v0__dffrnq_1
XFILLER_0_11_208 vdd vdd vss vss gf180mcu_fd_sc_mcu7t5v0__fill_2
XTAP_TAPCELL_ROW_19_200 vdd vss gf180mcu_fd_sc_mcu7t5v0__filltie
XFILLER_0_42_311 vdd vdd vss vss gf180mcu_fd_sc_mcu7t5v0__fillcap_4
XFILLER_0_27_352 vdd vdd vss vss gf180mcu_fd_sc_mcu7t5v0__fillcap_8
XTAP_TAPCELL_ROW_2_112 vdd vss gf180mcu_fd_sc_mcu7t5v0__filltie
XFILLER_0_37_105 vdd vdd vss vss gf180mcu_fd_sc_mcu7t5v0__fillcap_8
XFILLER_0_18_352 vdd vdd vss vss gf180mcu_fd_sc_mcu7t5v0__fill_2
X_327_ net141 _077_ clknet_3_6__leaf_prog_clk mem_right_track_24.DFFR_4_.Q vdd vdd
+ vss vss gf180mcu_fd_sc_mcu7t5v0__dffrnq_1
XFILLER_0_36_193 vdd vdd vss vss gf180mcu_fd_sc_mcu7t5v0__fill_2
X_258_ net201 _008_ clknet_3_0__leaf_prog_clk mem_top_track_2.DFFR_3_.Q vdd vdd vss
+ vss gf180mcu_fd_sc_mcu7t5v0__dffrnq_1
X_189_ _119_ _056_ vdd vdd vss vss gf180mcu_fd_sc_mcu7t5v0__clkinv_4
XFILLER_0_19_74 vdd vdd vss vss gf180mcu_fd_sc_mcu7t5v0__fill_1
XFILLER_0_15_311 vdd vdd vss vss gf180mcu_fd_sc_mcu7t5v0__fill_2
XFILLER_0_19_138 vdd vdd vss vss gf180mcu_fd_sc_mcu7t5v0__fill_2
XFILLER_0_30_325 vdd vdd vss vss gf180mcu_fd_sc_mcu7t5v0__fill_1
XFILLER_0_18_171 vdd vdd vss vss gf180mcu_fd_sc_mcu7t5v0__fill_2
XFILLER_0_21_347 vdd vdd vss vss gf180mcu_fd_sc_mcu7t5v0__fill_2
XPHY_EDGE_ROW_28_Left_76 vdd vss gf180mcu_fd_sc_mcu7t5v0__endcap
XFILLER_0_12_314 vdd vdd vss vss gf180mcu_fd_sc_mcu7t5v0__fill_1
XFILLER_0_1_41 vdd vdd vss vss gf180mcu_fd_sc_mcu7t5v0__fillcap_16
XFILLER_0_7_352 vdd vdd vss vss gf180mcu_fd_sc_mcu7t5v0__fillcap_8
Xhold43 mem_right_track_16.DFFR_4_.Q net139 vdd vdd vss vss gf180mcu_fd_sc_mcu7t5v0__dlyb_1
Xhold32 mem_right_track_16.DFFR_3_.Q net128 vdd vdd vss vss gf180mcu_fd_sc_mcu7t5v0__dlyb_1
Xhold87 mem_top_track_20.DFFR_0_.Q net183 vdd vdd vss vss gf180mcu_fd_sc_mcu7t5v0__dlyb_1
Xhold65 mem_top_track_18.DFFR_0_.Q net161 vdd vdd vss vss gf180mcu_fd_sc_mcu7t5v0__dlyb_1
Xhold76 mem_top_track_6.DFFR_0_.Q net172 vdd vdd vss vss gf180mcu_fd_sc_mcu7t5v0__dlyb_1
Xhold98 mem_top_track_26.DFFR_0_.Q net194 vdd vdd vss vss gf180mcu_fd_sc_mcu7t5v0__dlyb_1
Xhold21 mem_top_track_10.DFFR_1_.Q net117 vdd vdd vss vss gf180mcu_fd_sc_mcu7t5v0__dlyb_1
Xhold10 mem_right_track_32.DFFR_2_.Q net106 vdd vdd vss vss gf180mcu_fd_sc_mcu7t5v0__dlyb_1
Xhold54 mem_left_track_1.DFFR_0_.Q net150 vdd vdd vss vss gf180mcu_fd_sc_mcu7t5v0__dlyb_1
XFILLER_0_38_255 vdd vdd vss vss gf180mcu_fd_sc_mcu7t5v0__fill_1
XFILLER_0_21_122 vdd vdd vss vss gf180mcu_fd_sc_mcu7t5v0__fill_2
XANTENNA__293__CLK clknet_3_5__leaf_prog_clk vdd vdd vss vss gf180mcu_fd_sc_mcu7t5v0__antenna
XFILLER_0_16_75 vdd vdd vss vss gf180mcu_fd_sc_mcu7t5v0__fillcap_4
XFILLER_0_44_247 vdd vdd vss vss gf180mcu_fd_sc_mcu7t5v0__fillcap_64
XFILLER_0_4_311 vdd vdd vss vss gf180mcu_fd_sc_mcu7t5v0__fillcap_4
XFILLER_0_29_277 vdd vdd vss vss gf180mcu_fd_sc_mcu7t5v0__fill_2
Xoutput44 net44 chanx_left_out[19] vdd vdd vss vss gf180mcu_fd_sc_mcu7t5v0__buf_3
Xoutput55 net55 chanx_right_out[14] vdd vdd vss vss gf180mcu_fd_sc_mcu7t5v0__buf_3
Xoutput66 net66 chanx_right_out[9] vdd vdd vss vss gf180mcu_fd_sc_mcu7t5v0__buf_3
XFILLER_0_41_206 vdd vdd vss vss gf180mcu_fd_sc_mcu7t5v0__fillcap_4
XANTENNA__194__I _120_ vdd vdd vss vss gf180mcu_fd_sc_mcu7t5v0__antenna
XFILLER_0_26_247 vdd vdd vss vss gf180mcu_fd_sc_mcu7t5v0__fillcap_8
XFILLER_0_43_51 vdd vdd vss vss gf180mcu_fd_sc_mcu7t5v0__fill_2
XFILLER_0_43_40 vdd vdd vss vss gf180mcu_fd_sc_mcu7t5v0__fill_2
XPHY_EDGE_ROW_15_Left_63 vdd vss gf180mcu_fd_sc_mcu7t5v0__endcap
X_291_ net162 _041_ clknet_3_5__leaf_prog_clk mem_top_track_20.DFFR_0_.Q vdd vdd vss
+ vss gf180mcu_fd_sc_mcu7t5v0__dffrnq_1
X_360_ net188 _110_ clknet_3_2__leaf_prog_clk mem_left_track_33.DFFR_1_.Q vdd vdd
+ vss vss gf180mcu_fd_sc_mcu7t5v0__dffrnq_1
Xsb_1__0__91 chanx_right_out[0] vdd vdd vss vss gf180mcu_fd_sc_mcu7t5v0__tiel
Xsb_1__0__80 chany_top_out[6] vdd vdd vss vss gf180mcu_fd_sc_mcu7t5v0__tiel
XANTENNA__331__CLK clknet_3_6__leaf_prog_clk vdd vdd vss vss gf180mcu_fd_sc_mcu7t5v0__antenna
XTAP_TAPCELL_ROW_14_175 vdd vss gf180mcu_fd_sc_mcu7t5v0__filltie
XFILLER_0_22_261 vdd vdd vss vss gf180mcu_fd_sc_mcu7t5v0__fill_1
XFILLER_0_45_364 vdd vdd vss vss gf180mcu_fd_sc_mcu7t5v0__fill_2
XTAP_TAPCELL_ROW_37_289 vdd vss gf180mcu_fd_sc_mcu7t5v0__filltie
XPHY_EDGE_ROW_0_Left_48 vdd vss gf180mcu_fd_sc_mcu7t5v0__endcap
XANTENNA__354__CLK clknet_3_3__leaf_prog_clk vdd vdd vss vss gf180mcu_fd_sc_mcu7t5v0__antenna
X_412_ net18 net66 vdd vdd vss vss gf180mcu_fd_sc_mcu7t5v0__clkbuf_1
XTAP_TAPCELL_ROW_28_245 vdd vss gf180mcu_fd_sc_mcu7t5v0__filltie
XFILLER_0_36_331 vdd vdd vss vss gf180mcu_fd_sc_mcu7t5v0__fill_2
XTAP_TAPCELL_ROW_11_156 vdd vss gf180mcu_fd_sc_mcu7t5v0__filltie
X_274_ net138 _024_ clknet_3_1__leaf_prog_clk mem_top_track_10.DFFR_0_.D vdd vdd vss
+ vss gf180mcu_fd_sc_mcu7t5v0__dffrnq_1
X_343_ net206 _093_ clknet_3_2__leaf_prog_clk mem_left_track_9.DFFR_0_.Q vdd vdd vss
+ vss gf180mcu_fd_sc_mcu7t5v0__dffrnq_1
XFILLER_0_27_342 vdd vdd vss vss gf180mcu_fd_sc_mcu7t5v0__fill_2
XFILLER_0_6_247 vdd vdd vss vss gf180mcu_fd_sc_mcu7t5v0__fillcap_64
XFILLER_0_27_364 vdd vdd vss vss gf180mcu_fd_sc_mcu7t5v0__fill_2
XTAP_TAPCELL_ROW_2_113 vdd vss gf180mcu_fd_sc_mcu7t5v0__filltie
XFILLER_0_10_242 vdd vdd vss vss gf180mcu_fd_sc_mcu7t5v0__fill_2
XTAP_TAPCELL_ROW_25_226 vdd vss gf180mcu_fd_sc_mcu7t5v0__filltie
XFILLER_0_37_117 vdd vdd vss vss gf180mcu_fd_sc_mcu7t5v0__fill_2
XTAP_TAPCELL_ROW_33_270 vdd vss gf180mcu_fd_sc_mcu7t5v0__filltie
XFILLER_0_33_312 vdd vdd vss vss gf180mcu_fd_sc_mcu7t5v0__fill_2
XFILLER_0_18_364 vdd vdd vss vss gf180mcu_fd_sc_mcu7t5v0__fill_2
XFILLER_0_33_356 vdd vdd vss vss gf180mcu_fd_sc_mcu7t5v0__fillcap_8
X_326_ net97 _076_ clknet_3_7__leaf_prog_clk mem_right_track_24.DFFR_5_.Q vdd vdd
+ vss vss gf180mcu_fd_sc_mcu7t5v0__dffrnq_1
XFILLER_0_36_172 vdd vdd vss vss gf180mcu_fd_sc_mcu7t5v0__fill_2
XFILLER_0_3_206 vdd vdd vss vss gf180mcu_fd_sc_mcu7t5v0__fillcap_4
X_257_ net203 _007_ clknet_3_0__leaf_prog_clk mem_top_track_2.DFFR_4_.Q vdd vdd vss
+ vss gf180mcu_fd_sc_mcu7t5v0__dffrnq_1
X_188_ _119_ _055_ vdd vdd vss vss gf180mcu_fd_sc_mcu7t5v0__clkinv_4
XFILLER_0_24_356 vdd vdd vss vss gf180mcu_fd_sc_mcu7t5v0__fillcap_8
XTAP_TAPCELL_ROW_47_340 vdd vss gf180mcu_fd_sc_mcu7t5v0__filltie
XTAP_TAPCELL_ROW_30_251 vdd vss gf180mcu_fd_sc_mcu7t5v0__filltie
XANTENNA_input34_I chanx_right_in[9] vdd vdd vss vss gf180mcu_fd_sc_mcu7t5v0__antenna
XFILLER_0_33_142 vdd vdd vss vss gf180mcu_fd_sc_mcu7t5v0__fill_2
XPHY_EDGE_ROW_3_Left_51 vdd vss gf180mcu_fd_sc_mcu7t5v0__endcap
XTAP_TAPCELL_ROW_44_321 vdd vss gf180mcu_fd_sc_mcu7t5v0__filltie
XANTENNA__197__I _120_ vdd vdd vss vss gf180mcu_fd_sc_mcu7t5v0__antenna
XFILLER_0_21_10 vdd vdd vss vss gf180mcu_fd_sc_mcu7t5v0__fill_2
X_309_ net202 _059_ clknet_3_6__leaf_prog_clk mem_left_track_1.DFFR_4_.Q vdd vdd vss
+ vss gf180mcu_fd_sc_mcu7t5v0__dffrnq_1
XFILLER_0_21_76 vdd vdd vss vss gf180mcu_fd_sc_mcu7t5v0__fillcap_4
XFILLER_0_24_164 vdd vdd vss vss gf180mcu_fd_sc_mcu7t5v0__fill_1
XFILLER_0_47_201 vdd vdd vss vss gf180mcu_fd_sc_mcu7t5v0__fill_2
XFILLER_0_7_364 vdd vdd vss vss gf180mcu_fd_sc_mcu7t5v0__fill_2
XFILLER_0_15_142 vdd vdd vss vss gf180mcu_fd_sc_mcu7t5v0__fillcap_8
XPHY_EDGE_ROW_45_Left_93 vdd vss gf180mcu_fd_sc_mcu7t5v0__endcap
Xhold22 mem_left_track_9.DFFR_3_.Q net118 vdd vdd vss vss gf180mcu_fd_sc_mcu7t5v0__dlyb_1
Xhold11 mem_top_track_4.DFFR_4_.Q net107 vdd vdd vss vss gf180mcu_fd_sc_mcu7t5v0__dlyb_1
Xhold88 mem_right_track_24.DFFR_2_.Q net184 vdd vdd vss vss gf180mcu_fd_sc_mcu7t5v0__dlyb_1
Xhold44 mem_left_track_9.DFFR_1_.Q net140 vdd vdd vss vss gf180mcu_fd_sc_mcu7t5v0__dlyb_1
Xhold99 mem_top_track_20.DFFR_1_.Q net195 vdd vdd vss vss gf180mcu_fd_sc_mcu7t5v0__dlyb_1
Xhold66 mem_top_track_18.DFFR_1_.Q net162 vdd vdd vss vss gf180mcu_fd_sc_mcu7t5v0__dlyb_1
Xhold55 mem_top_track_2.DFFR_1_.Q net151 vdd vdd vss vss gf180mcu_fd_sc_mcu7t5v0__dlyb_1
Xhold33 mem_right_track_0.DFFR_5_.Q net129 vdd vdd vss vss gf180mcu_fd_sc_mcu7t5v0__dlyb_1
Xhold77 mem_left_track_1.DFFR_1_.Q net173 vdd vdd vss vss gf180mcu_fd_sc_mcu7t5v0__dlyb_1
XFILLER_0_38_278 vdd vdd vss vss gf180mcu_fd_sc_mcu7t5v0__fill_1
XFILLER_0_38_201 vdd vdd vss vss gf180mcu_fd_sc_mcu7t5v0__fill_2
XFILLER_0_29_212 vdd vdd vss vss gf180mcu_fd_sc_mcu7t5v0__fill_2
XFILLER_0_35_259 vdd vdd vss vss gf180mcu_fd_sc_mcu7t5v0__fill_1
XFILLER_0_7_172 vdd vdd vss vss gf180mcu_fd_sc_mcu7t5v0__fill_2
Xoutput56 net56 chanx_right_out[15] vdd vdd vss vss gf180mcu_fd_sc_mcu7t5v0__clkbuf_4
Xoutput45 net45 chanx_left_out[1] vdd vdd vss vss gf180mcu_fd_sc_mcu7t5v0__clkbuf_4
Xoutput67 net67 chany_top_out[16] vdd vdd vss vss gf180mcu_fd_sc_mcu7t5v0__buf_3
XANTENNA__260__CLK clknet_3_1__leaf_prog_clk vdd vdd vss vss gf180mcu_fd_sc_mcu7t5v0__antenna
XFILLER_0_34_292 vdd vdd vss vss gf180mcu_fd_sc_mcu7t5v0__fill_1
X_290_ net183 _040_ clknet_3_5__leaf_prog_clk mem_top_track_20.DFFR_1_.Q vdd vdd vss
+ vss gf180mcu_fd_sc_mcu7t5v0__dffrnq_1
Xsb_1__0__81 chany_top_out[5] vdd vdd vss vss gf180mcu_fd_sc_mcu7t5v0__tiel
Xsb_1__0__92 chanx_left_out[16] vdd vdd vss vss gf180mcu_fd_sc_mcu7t5v0__tiel
Xsb_1__0__70 chany_top_out[19] vdd vdd vss vss gf180mcu_fd_sc_mcu7t5v0__tiel
XTAP_TAPCELL_ROW_8_141 vdd vss gf180mcu_fd_sc_mcu7t5v0__filltie
XPHY_EDGE_ROW_32_Left_80 vdd vss gf180mcu_fd_sc_mcu7t5v0__endcap
XFILLER_0_14_229 vdd vdd vss vss gf180mcu_fd_sc_mcu7t5v0__fill_2
XFILLER_0_9_212 vdd vdd vss vss gf180mcu_fd_sc_mcu7t5v0__fillcap_8
X_411_ net19 net52 vdd vdd vss vss gf180mcu_fd_sc_mcu7t5v0__clkbuf_1
X_342_ net152 _092_ clknet_3_2__leaf_prog_clk mem_left_track_9.DFFR_1_.Q vdd vdd vss
+ vss gf180mcu_fd_sc_mcu7t5v0__dffrnq_1
X_273_ net137 _023_ clknet_3_1__leaf_prog_clk mem_top_track_6.DFFR_0_.Q vdd vdd vss
+ vss gf180mcu_fd_sc_mcu7t5v0__dffrnq_1
XTAP_TAPCELL_ROW_11_157 vdd vss gf180mcu_fd_sc_mcu7t5v0__filltie
XFILLER_0_24_32 vdd vdd vss vss gf180mcu_fd_sc_mcu7t5v0__fill_2
XFILLER_0_46_107 vdd vdd vss vss gf180mcu_fd_sc_mcu7t5v0__fillcap_16
XFILLER_0_40_20 vdd vdd vss vss gf180mcu_fd_sc_mcu7t5v0__fill_2
XFILLER_0_39_170 vdd vdd vss vss gf180mcu_fd_sc_mcu7t5v0__fillcap_32
XFILLER_0_10_210 vdd vdd vss vss gf180mcu_fd_sc_mcu7t5v0__fillcap_4
XTAP_TAPCELL_ROW_2_114 vdd vss gf180mcu_fd_sc_mcu7t5v0__filltie
XTAP_TAPCELL_ROW_25_227 vdd vss gf180mcu_fd_sc_mcu7t5v0__filltie
XANTENNA__321__CLK clknet_3_7__leaf_prog_clk vdd vdd vss vss gf180mcu_fd_sc_mcu7t5v0__antenna
XFILLER_0_28_107 vdd vdd vss vss gf180mcu_fd_sc_mcu7t5v0__fillcap_8
X_325_ net174 _075_ clknet_3_7__leaf_prog_clk mem_right_track_16.DFFR_0_.Q vdd vdd
+ vss vss gf180mcu_fd_sc_mcu7t5v0__dffrnq_1
XFILLER_0_36_195 vdd vdd vss vss gf180mcu_fd_sc_mcu7t5v0__fill_1
XFILLER_0_10_34 vdd vdd vss vss gf180mcu_fd_sc_mcu7t5v0__fill_1
X_256_ net127 _006_ clknet_3_0__leaf_prog_clk mem_top_track_2.DFFR_5_.Q vdd vdd vss
+ vss gf180mcu_fd_sc_mcu7t5v0__dffrnq_1
X_187_ _119_ _054_ vdd vdd vss vss gf180mcu_fd_sc_mcu7t5v0__clkinv_4
XTAP_TAPCELL_ROW_47_341 vdd vss gf180mcu_fd_sc_mcu7t5v0__filltie
XANTENNA__344__CLK clknet_3_2__leaf_prog_clk vdd vdd vss vss gf180mcu_fd_sc_mcu7t5v0__antenna
XFILLER_0_15_313 vdd vdd vss vss gf180mcu_fd_sc_mcu7t5v0__fill_1
XFILLER_0_27_195 vdd vdd vss vss gf180mcu_fd_sc_mcu7t5v0__fill_2
XTAP_TAPCELL_ROW_30_252 vdd vss gf180mcu_fd_sc_mcu7t5v0__filltie
XANTENNA_input27_I chanx_right_in[18] vdd vdd vss vss gf180mcu_fd_sc_mcu7t5v0__antenna
XFILLER_0_21_349 vdd vdd vss vss gf180mcu_fd_sc_mcu7t5v0__fill_1
XTAP_TAPCELL_ROW_44_322 vdd vss gf180mcu_fd_sc_mcu7t5v0__filltie
X_239_ _124_ _101_ vdd vdd vss vss gf180mcu_fd_sc_mcu7t5v0__clkinv_2
X_308_ net185 _058_ clknet_3_6__leaf_prog_clk mem_left_track_1.DFFR_5_.Q vdd vdd vss
+ vss gf180mcu_fd_sc_mcu7t5v0__dffrnq_1
XFILLER_0_1_65 vdd vdd vss vss gf180mcu_fd_sc_mcu7t5v0__fillcap_4
Xhold45 mem_right_track_24.DFFR_3_.Q net141 vdd vdd vss vss gf180mcu_fd_sc_mcu7t5v0__dlyb_1
Xhold12 mem_top_track_12.DFFR_0_.Q net108 vdd vdd vss vss gf180mcu_fd_sc_mcu7t5v0__dlyb_1
Xhold23 mem_top_track_6.DFFR_2_.Q net119 vdd vdd vss vss gf180mcu_fd_sc_mcu7t5v0__dlyb_1
XFILLER_0_11_360 vdd vdd vss vss gf180mcu_fd_sc_mcu7t5v0__fillcap_4