* NGSPICE file created from sb_1__2_.ext - technology: gf180mcuD

* Black-box entry subcircuit for gf180mcu_fd_sc_mcu7t5v0__fill_1 abstract view
.subckt gf180mcu_fd_sc_mcu7t5v0__fill_1 VDD VNW VPW VSS
.ends

* Black-box entry subcircuit for gf180mcu_fd_sc_mcu7t5v0__fillcap_4 abstract view
.subckt gf180mcu_fd_sc_mcu7t5v0__fillcap_4 VDD VNW VPW VSS
.ends

* Black-box entry subcircuit for gf180mcu_fd_sc_mcu7t5v0__filltie abstract view
.subckt gf180mcu_fd_sc_mcu7t5v0__filltie VDD VSS
.ends

* Black-box entry subcircuit for gf180mcu_fd_sc_mcu7t5v0__fillcap_8 abstract view
.subckt gf180mcu_fd_sc_mcu7t5v0__fillcap_8 VDD VNW VPW VSS
.ends

* Black-box entry subcircuit for gf180mcu_fd_sc_mcu7t5v0__dffrnq_1 abstract view
.subckt gf180mcu_fd_sc_mcu7t5v0__dffrnq_1 D RN CLK Q VDD VNW VPW VSS
.ends

* Black-box entry subcircuit for gf180mcu_fd_sc_mcu7t5v0__fillcap_64 abstract view
.subckt gf180mcu_fd_sc_mcu7t5v0__fillcap_64 VDD VNW VPW VSS
.ends

* Black-box entry subcircuit for gf180mcu_fd_sc_mcu7t5v0__fillcap_16 abstract view
.subckt gf180mcu_fd_sc_mcu7t5v0__fillcap_16 VDD VNW VPW VSS
.ends

* Black-box entry subcircuit for gf180mcu_fd_sc_mcu7t5v0__fill_2 abstract view
.subckt gf180mcu_fd_sc_mcu7t5v0__fill_2 VDD VNW VPW VSS
.ends

* Black-box entry subcircuit for gf180mcu_fd_sc_mcu7t5v0__antenna abstract view
.subckt gf180mcu_fd_sc_mcu7t5v0__antenna I VDD VNW VPW VSS
.ends

* Black-box entry subcircuit for gf180mcu_fd_sc_mcu7t5v0__buf_4 abstract view
.subckt gf180mcu_fd_sc_mcu7t5v0__buf_4 I Z VDD VNW VPW VSS
.ends

* Black-box entry subcircuit for gf180mcu_fd_sc_mcu7t5v0__clkinv_2 abstract view
.subckt gf180mcu_fd_sc_mcu7t5v0__clkinv_2 I ZN VDD VNW VPW VSS
.ends

* Black-box entry subcircuit for gf180mcu_fd_sc_mcu7t5v0__endcap abstract view
.subckt gf180mcu_fd_sc_mcu7t5v0__endcap VDD VSS
.ends

* Black-box entry subcircuit for gf180mcu_fd_sc_mcu7t5v0__dlyb_1 abstract view
.subckt gf180mcu_fd_sc_mcu7t5v0__dlyb_1 I Z VDD VNW VPW VSS
.ends

* Black-box entry subcircuit for gf180mcu_fd_sc_mcu7t5v0__buf_3 abstract view
.subckt gf180mcu_fd_sc_mcu7t5v0__buf_3 I Z VDD VNW VPW VSS
.ends

* Black-box entry subcircuit for gf180mcu_fd_sc_mcu7t5v0__fillcap_32 abstract view
.subckt gf180mcu_fd_sc_mcu7t5v0__fillcap_32 VDD VNW VPW VSS
.ends

* Black-box entry subcircuit for gf180mcu_fd_sc_mcu7t5v0__clkbuf_3 abstract view
.subckt gf180mcu_fd_sc_mcu7t5v0__clkbuf_3 I Z VDD VNW VPW VSS
.ends

* Black-box entry subcircuit for gf180mcu_fd_sc_mcu7t5v0__clkbuf_1 abstract view
.subckt gf180mcu_fd_sc_mcu7t5v0__clkbuf_1 I Z VDD VNW VPW VSS
.ends

* Black-box entry subcircuit for gf180mcu_fd_sc_mcu7t5v0__clkbuf_16 abstract view
.subckt gf180mcu_fd_sc_mcu7t5v0__clkbuf_16 I Z VDD VNW VPW VSS
.ends

* Black-box entry subcircuit for gf180mcu_fd_sc_mcu7t5v0__tiel abstract view
.subckt gf180mcu_fd_sc_mcu7t5v0__tiel ZN VDD VNW VPW VSS
.ends

* Black-box entry subcircuit for gf180mcu_fd_sc_mcu7t5v0__buf_1 abstract view
.subckt gf180mcu_fd_sc_mcu7t5v0__buf_1 I Z VDD VNW VPW VSS
.ends

.subckt sb_1__2_ bottom_left_grid_right_width_0_height_0_subtile_0__pin_O_1_ bottom_left_grid_right_width_0_height_0_subtile_0__pin_O_5_
+ bottom_right_grid_left_width_0_height_0_subtile_0__pin_O_3_ bottom_right_grid_left_width_0_height_0_subtile_0__pin_O_7_
+ ccff_head ccff_tail chanx_left_in[0] chanx_left_in[10] chanx_left_in[11] chanx_left_in[12]
+ chanx_left_in[13] chanx_left_in[14] chanx_left_in[15] chanx_left_in[16] chanx_left_in[17]
+ chanx_left_in[18] chanx_left_in[19] chanx_left_in[1] chanx_left_in[2] chanx_left_in[3]
+ chanx_left_in[4] chanx_left_in[5] chanx_left_in[6] chanx_left_in[7] chanx_left_in[8]
+ chanx_left_in[9] chanx_left_out[0] chanx_left_out[10] chanx_left_out[11] chanx_left_out[13]
+ chanx_left_out[14] chanx_left_out[15] chanx_left_out[17] chanx_left_out[18] chanx_left_out[19]
+ chanx_left_out[1] chanx_left_out[2] chanx_left_out[3] chanx_left_out[4] chanx_left_out[5]
+ chanx_left_out[6] chanx_left_out[7] chanx_left_out[9] chanx_right_in[0] chanx_right_in[10]
+ chanx_right_in[11] chanx_right_in[12] chanx_right_in[13] chanx_right_in[14] chanx_right_in[15]
+ chanx_right_in[16] chanx_right_in[17] chanx_right_in[18] chanx_right_in[19] chanx_right_in[1]
+ chanx_right_in[2] chanx_right_in[3] chanx_right_in[4] chanx_right_in[5] chanx_right_in[6]
+ chanx_right_in[7] chanx_right_in[8] chanx_right_in[9] chanx_right_out[10] chanx_right_out[11]
+ chanx_right_out[13] chanx_right_out[14] chanx_right_out[15] chanx_right_out[17]
+ chanx_right_out[18] chanx_right_out[19] chanx_right_out[1] chanx_right_out[2] chanx_right_out[3]
+ chanx_right_out[5] chanx_right_out[6] chanx_right_out[7] chanx_right_out[9] chany_bottom_in[0]
+ chany_bottom_in[10] chany_bottom_in[11] chany_bottom_in[12] chany_bottom_in[13]
+ chany_bottom_in[14] chany_bottom_in[15] chany_bottom_in[16] chany_bottom_in[17]
+ chany_bottom_in[18] chany_bottom_in[19] chany_bottom_in[1] chany_bottom_in[2] chany_bottom_in[3]
+ chany_bottom_in[4] chany_bottom_in[5] chany_bottom_in[6] chany_bottom_in[7] chany_bottom_in[8]
+ chany_bottom_in[9] chany_bottom_out[15] chany_bottom_out[16] chany_bottom_out[17]
+ chany_bottom_out[18] chany_bottom_out[19] left_bottom_grid_top_width_0_height_0_subtile_0__pin_O_0_
+ left_bottom_grid_top_width_0_height_0_subtile_0__pin_O_4_ left_top_grid_bottom_width_0_height_0_subtile_0__pin_inpad_0_
+ left_top_grid_bottom_width_0_height_0_subtile_1__pin_inpad_0_ left_top_grid_bottom_width_0_height_0_subtile_2__pin_inpad_0_
+ left_top_grid_bottom_width_0_height_0_subtile_3__pin_inpad_0_ pReset prog_clk right_bottom_grid_top_width_0_height_0_subtile_0__pin_O_0_
+ right_bottom_grid_top_width_0_height_0_subtile_0__pin_O_4_ right_top_grid_bottom_width_0_height_0_subtile_0__pin_inpad_0_
+ right_top_grid_bottom_width_0_height_0_subtile_1__pin_inpad_0_ right_top_grid_bottom_width_0_height_0_subtile_2__pin_inpad_0_
+ right_top_grid_bottom_width_0_height_0_subtile_3__pin_inpad_0_ vdd vss chany_bottom_out[9]
+ chany_bottom_out[10] chanx_right_out[16] chany_bottom_out[11] chany_bottom_out[0]
+ chany_bottom_out[1] chany_bottom_out[12] chany_bottom_out[2] chany_bottom_out[13]
+ chanx_left_out[8] chany_bottom_out[3] chany_bottom_out[14] chanx_left_out[12] chany_bottom_out[4]
+ chany_bottom_out[5] chanx_left_out[16] chanx_right_out[0] chany_bottom_out[6] chany_bottom_out[7]
+ chanx_right_out[4] chanx_right_out[8] chany_bottom_out[8] chanx_right_out[12]
XFILLER_0_49_303 vdd vdd vss vss gf180mcu_fd_sc_mcu7t5v0__fill_1
XFILLER_0_49_325 vdd vdd vss vss gf180mcu_fd_sc_mcu7t5v0__fillcap_4
XTAP_TAPCELL_ROW_17_191 vdd vss gf180mcu_fd_sc_mcu7t5v0__filltie
XFILLER_0_4_193 vdd vdd vss vss gf180mcu_fd_sc_mcu7t5v0__fillcap_8
XFILLER_0_4_171 vdd vdd vss vss gf180mcu_fd_sc_mcu7t5v0__fillcap_4
X_294_ net117 _050_ clknet_3_5__leaf_prog_clk mem_left_track_17.DFFR_1_.Q vdd vdd
+ vss vss gf180mcu_fd_sc_mcu7t5v0__dffrnq_1
XFILLER_0_48_37 vdd vdd vss vss gf180mcu_fd_sc_mcu7t5v0__fillcap_64
XFILLER_0_46_317 vdd vdd vss vss gf180mcu_fd_sc_mcu7t5v0__fillcap_16
XFILLER_0_14_247 vdd vdd vss vss gf180mcu_fd_sc_mcu7t5v0__fill_2
XFILLER_0_22_280 vdd vdd vss vss gf180mcu_fd_sc_mcu7t5v0__fill_1
XFILLER_0_49_122 vdd vdd vss vss gf180mcu_fd_sc_mcu7t5v0__fill_2
X_346_ net134 _102_ clknet_3_1__leaf_prog_clk mem_bottom_track_23.DFFR_1_.Q vdd vdd
+ vss vss gf180mcu_fd_sc_mcu7t5v0__dffrnq_1
XTAP_TAPCELL_ROW_11_164 vdd vss gf180mcu_fd_sc_mcu7t5v0__filltie
X_277_ net136 _033_ clknet_3_6__leaf_prog_clk mem_right_track_24.DFFR_0_.Q vdd vdd
+ vss vss gf180mcu_fd_sc_mcu7t5v0__dffrnq_1
XFILLER_0_6_233 vdd vdd vss vss gf180mcu_fd_sc_mcu7t5v0__fillcap_8
XFILLER_0_27_383 vdd vdd vss vss gf180mcu_fd_sc_mcu7t5v0__fill_1
XTAP_TAPCELL_ROW_34_278 vdd vss gf180mcu_fd_sc_mcu7t5v0__filltie
XFILLER_0_42_375 vdd vdd vss vss gf180mcu_fd_sc_mcu7t5v0__fill_1
XANTENNA_input36_I chanx_right_in[9] vdd vdd vss vss gf180mcu_fd_sc_mcu7t5v0__antenna
XFILLER_0_10_283 vdd vdd vss vss gf180mcu_fd_sc_mcu7t5v0__fill_2
XFILLER_0_37_136 vdd vdd vss vss gf180mcu_fd_sc_mcu7t5v0__fillcap_4
X_200_ _110_ _118_ vdd vdd vss vss gf180mcu_fd_sc_mcu7t5v0__buf_4
XTAP_TAPCELL_ROW_25_234 vdd vss gf180mcu_fd_sc_mcu7t5v0__filltie
X_131_ _111_ _007_ vdd vdd vss vss gf180mcu_fd_sc_mcu7t5v0__clkinv_2
XTAP_TAPCELL_ROW_48_348 vdd vss gf180mcu_fd_sc_mcu7t5v0__filltie
X_329_ net112 _085_ clknet_3_5__leaf_prog_clk mem_bottom_track_7.DFFR_2_.Q vdd vdd
+ vss vss gf180mcu_fd_sc_mcu7t5v0__dffrnq_1
XFILLER_0_28_125 vdd vdd vss vss gf180mcu_fd_sc_mcu7t5v0__fill_1
XTAP_TAPCELL_ROW_39_304 vdd vss gf180mcu_fd_sc_mcu7t5v0__filltie
XFILLER_0_19_61 vdd vdd vss vss gf180mcu_fd_sc_mcu7t5v0__fillcap_8
XFILLER_0_19_72 vdd vdd vss vss gf180mcu_fd_sc_mcu7t5v0__fill_2
XPHY_EDGE_ROW_8_Left_58 vdd vss gf180mcu_fd_sc_mcu7t5v0__endcap
XFILLER_0_21_323 vdd vdd vss vss gf180mcu_fd_sc_mcu7t5v0__fillcap_4
XFILLER_0_8_317 vdd vdd vss vss gf180mcu_fd_sc_mcu7t5v0__fillcap_64
XFILLER_0_16_128 vdd vdd vss vss gf180mcu_fd_sc_mcu7t5v0__fillcap_8
XFILLER_0_24_172 vdd vdd vss vss gf180mcu_fd_sc_mcu7t5v0__fill_1
XFILLER_0_12_367 vdd vdd vss vss gf180mcu_fd_sc_mcu7t5v0__fillcap_16
XFILLER_0_27_2 vdd vdd vss vss gf180mcu_fd_sc_mcu7t5v0__fillcap_4
XFILLER_0_1_72 vdd vdd vss vss gf180mcu_fd_sc_mcu7t5v0__fillcap_64
Xhold30 mem_bottom_track_3.DFFR_5_.Q net128 vdd vdd vss vss gf180mcu_fd_sc_mcu7t5v0__dlyb_1
Xhold74 mem_bottom_track_27.DFFR_1_.Q net172 vdd vdd vss vss gf180mcu_fd_sc_mcu7t5v0__dlyb_1
Xhold41 mem_bottom_track_19.DFFR_0_.Q net139 vdd vdd vss vss gf180mcu_fd_sc_mcu7t5v0__dlyb_1
Xhold63 mem_bottom_track_1.DFFR_2_.Q net161 vdd vdd vss vss gf180mcu_fd_sc_mcu7t5v0__dlyb_1
Xhold52 mem_right_track_24.DFFR_0_.Q net150 vdd vdd vss vss gf180mcu_fd_sc_mcu7t5v0__dlyb_1
Xhold96 mem_left_track_9.DFFR_3_.Q net194 vdd vdd vss vss gf180mcu_fd_sc_mcu7t5v0__dlyb_1
Xhold85 mem_left_track_25.DFFR_4_.Q net183 vdd vdd vss vss gf180mcu_fd_sc_mcu7t5v0__dlyb_1
XANTENNA__167__I _110_ vdd vdd vss vss gf180mcu_fd_sc_mcu7t5v0__antenna
XFILLER_0_29_220 vdd vdd vss vss gf180mcu_fd_sc_mcu7t5v0__fillcap_4
XFILLER_0_35_212 vdd vdd vss vss gf180mcu_fd_sc_mcu7t5v0__fillcap_16
Xoutput53 net53 chanx_left_out[9] vdd vdd vss vss gf180mcu_fd_sc_mcu7t5v0__buf_3
Xoutput42 net42 chanx_left_out[14] vdd vdd vss vss gf180mcu_fd_sc_mcu7t5v0__buf_3
Xoutput64 net64 chanx_right_out[3] vdd vdd vss vss gf180mcu_fd_sc_mcu7t5v0__buf_3
XFILLER_0_41_226 vdd vdd vss vss gf180mcu_fd_sc_mcu7t5v0__fillcap_32
XANTENNA_clkbuf_3_7__f_prog_clk_I clknet_0_prog_clk vdd vdd vss vss gf180mcu_fd_sc_mcu7t5v0__antenna
XFILLER_0_27_61 vdd vdd vss vss gf180mcu_fd_sc_mcu7t5v0__fillcap_8
XTAP_TAPCELL_ROW_17_192 vdd vss gf180mcu_fd_sc_mcu7t5v0__filltie
XFILLER_0_17_201 vdd vdd vss vss gf180mcu_fd_sc_mcu7t5v0__fillcap_8
XPHY_EDGE_ROW_37_Left_87 vdd vss gf180mcu_fd_sc_mcu7t5v0__endcap
X_293_ net206 _049_ clknet_3_3__leaf_prog_clk mem_left_track_17.DFFR_2_.Q vdd vdd
+ vss vss gf180mcu_fd_sc_mcu7t5v0__dffrnq_1
XANTENNA__180__I _116_ vdd vdd vss vss gf180mcu_fd_sc_mcu7t5v0__antenna
XFILLER_0_1_142 vdd vdd vss vss gf180mcu_fd_sc_mcu7t5v0__fillcap_8
XFILLER_0_1_175 vdd vdd vss vss gf180mcu_fd_sc_mcu7t5v0__fillcap_16
XFILLER_0_14_237 vdd vdd vss vss gf180mcu_fd_sc_mcu7t5v0__fill_2
XFILLER_0_49_156 vdd vdd vss vss gf180mcu_fd_sc_mcu7t5v0__fillcap_4
X_345_ net109 _101_ clknet_3_0__leaf_prog_clk mem_bottom_track_21.DFFR_0_.Q vdd vdd
+ vss vss gf180mcu_fd_sc_mcu7t5v0__dffrnq_1
X_276_ net150 _032_ clknet_3_6__leaf_prog_clk mem_right_track_24.DFFR_1_.Q vdd vdd
+ vss vss gf180mcu_fd_sc_mcu7t5v0__dffrnq_1
XTAP_TAPCELL_ROW_11_165 vdd vss gf180mcu_fd_sc_mcu7t5v0__filltie
XFILLER_0_42_365 vdd vdd vss vss gf180mcu_fd_sc_mcu7t5v0__fillcap_8
XTAP_TAPCELL_ROW_34_279 vdd vss gf180mcu_fd_sc_mcu7t5v0__filltie
XFILLER_0_49_70 vdd vdd vss vss gf180mcu_fd_sc_mcu7t5v0__fillcap_32
XPHY_EDGE_ROW_12_Right_12 vdd vss gf180mcu_fd_sc_mcu7t5v0__endcap
XANTENNA_input29_I chanx_right_in[2] vdd vdd vss vss gf180mcu_fd_sc_mcu7t5v0__antenna
XPHY_EDGE_ROW_21_Right_21 vdd vss gf180mcu_fd_sc_mcu7t5v0__endcap
XFILLER_0_18_351 vdd vdd vss vss gf180mcu_fd_sc_mcu7t5v0__fillcap_8
XTAP_TAPCELL_ROW_25_235 vdd vss gf180mcu_fd_sc_mcu7t5v0__filltie
X_130_ _111_ _006_ vdd vdd vss vss gf180mcu_fd_sc_mcu7t5v0__clkinv_2
XPHY_EDGE_ROW_30_Right_30 vdd vss gf180mcu_fd_sc_mcu7t5v0__endcap
XFILLER_0_33_332 vdd vdd vss vss gf180mcu_fd_sc_mcu7t5v0__fillcap_16
XTAP_TAPCELL_ROW_48_349 vdd vss gf180mcu_fd_sc_mcu7t5v0__filltie
X_328_ net135 _084_ clknet_3_4__leaf_prog_clk mem_bottom_track_7.DFFR_3_.Q vdd vdd
+ vss vss gf180mcu_fd_sc_mcu7t5v0__dffrnq_1
X_259_ net173 _015_ clknet_3_0__leaf_prog_clk mem_left_track_1.DFFR_0_.Q vdd vdd vss
+ vss gf180mcu_fd_sc_mcu7t5v0__dffrnq_1
XFILLER_0_19_40 vdd vdd vss vss gf180mcu_fd_sc_mcu7t5v0__fillcap_4
XPHY_EDGE_ROW_24_Left_74 vdd vss gf180mcu_fd_sc_mcu7t5v0__endcap
XTAP_TAPCELL_ROW_39_305 vdd vss gf180mcu_fd_sc_mcu7t5v0__filltie
XFILLER_0_29_6 vdd vdd vss vss gf180mcu_fd_sc_mcu7t5v0__fill_2
XTAP_TAPCELL_ROW_22_216 vdd vss gf180mcu_fd_sc_mcu7t5v0__filltie
XFILLER_0_34_107 vdd vdd vss vss gf180mcu_fd_sc_mcu7t5v0__fillcap_8
XFILLER_0_35_72 vdd vdd vss vss gf180mcu_fd_sc_mcu7t5v0__fillcap_16
XTAP_TAPCELL_ROW_30_260 vdd vss gf180mcu_fd_sc_mcu7t5v0__filltie
XFILLER_0_2_281 vdd vdd vss vss gf180mcu_fd_sc_mcu7t5v0__fill_2
XTAP_TAPCELL_ROW_44_330 vdd vss gf180mcu_fd_sc_mcu7t5v0__filltie
XFILLER_0_12_313 vdd vdd vss vss gf180mcu_fd_sc_mcu7t5v0__fill_2
XFILLER_0_16_107 vdd vdd vss vss gf180mcu_fd_sc_mcu7t5v0__fillcap_4
XFILLER_0_47_276 vdd vdd vss vss gf180mcu_fd_sc_mcu7t5v0__fillcap_4
XFILLER_0_15_151 vdd vdd vss vss gf180mcu_fd_sc_mcu7t5v0__fillcap_8
Xhold64 mem_bottom_track_7.DFFR_3_.Q net162 vdd vdd vss vss gf180mcu_fd_sc_mcu7t5v0__dlyb_1
Xhold42 mem_bottom_track_3.DFFR_4_.Q net140 vdd vdd vss vss gf180mcu_fd_sc_mcu7t5v0__dlyb_1
Xhold31 mem_bottom_track_23.DFFR_1_.Q net129 vdd vdd vss vss gf180mcu_fd_sc_mcu7t5v0__dlyb_1
Xhold75 mem_bottom_track_29.DFFR_1_.Q net173 vdd vdd vss vss gf180mcu_fd_sc_mcu7t5v0__dlyb_1
Xhold86 mem_left_track_25.DFFR_1_.Q net184 vdd vdd vss vss gf180mcu_fd_sc_mcu7t5v0__dlyb_1
Xhold97 mem_left_track_25.DFFR_0_.Q net195 vdd vdd vss vss gf180mcu_fd_sc_mcu7t5v0__dlyb_1
Xhold20 mem_left_track_33.DFFR_3_.Q net118 vdd vdd vss vss gf180mcu_fd_sc_mcu7t5v0__dlyb_1
Xhold53 mem_bottom_track_1.DFFR_4_.Q net151 vdd vdd vss vss gf180mcu_fd_sc_mcu7t5v0__dlyb_1
XTAP_TAPCELL_ROW_41_311 vdd vss gf180mcu_fd_sc_mcu7t5v0__filltie
XANTENNA__183__I _116_ vdd vdd vss vss gf180mcu_fd_sc_mcu7t5v0__antenna
XPHY_EDGE_ROW_6_Right_6 vdd vss gf180mcu_fd_sc_mcu7t5v0__endcap
XFILLER_0_4_365 vdd vdd vss vss gf180mcu_fd_sc_mcu7t5v0__fillcap_4
XFILLER_0_12_143 vdd vdd vss vss gf180mcu_fd_sc_mcu7t5v0__fill_2
XPHY_EDGE_ROW_11_Left_61 vdd vss gf180mcu_fd_sc_mcu7t5v0__endcap
XANTENNA_input11_I chanx_left_in[2] vdd vdd vss vss gf180mcu_fd_sc_mcu7t5v0__antenna
XFILLER_0_35_279 vdd vdd vss vss gf180mcu_fd_sc_mcu7t5v0__fill_1
Xoutput65 net65 chanx_right_out[5] vdd vdd vss vss gf180mcu_fd_sc_mcu7t5v0__buf_3
Xoutput54 net54 chanx_right_out[10] vdd vdd vss vss gf180mcu_fd_sc_mcu7t5v0__buf_3
XFILLER_0_9_2 vdd vdd vss vss gf180mcu_fd_sc_mcu7t5v0__fillcap_64
Xoutput43 net43 chanx_left_out[15] vdd vdd vss vss gf180mcu_fd_sc_mcu7t5v0__clkbuf_3
XANTENNA__178__I _110_ vdd vdd vss vss gf180mcu_fd_sc_mcu7t5v0__antenna
XFILLER_0_26_202 vdd vdd vss vss gf180mcu_fd_sc_mcu7t5v0__fill_2
XANTENNA_input3_I chanx_left_in[10] vdd vdd vss vss gf180mcu_fd_sc_mcu7t5v0__antenna
XFILLER_0_27_40 vdd vdd vss vss gf180mcu_fd_sc_mcu7t5v0__fillcap_4
XFILLER_0_43_72 vdd vdd vss vss gf180mcu_fd_sc_mcu7t5v0__fillcap_64
XTAP_TAPCELL_ROW_17_193 vdd vss gf180mcu_fd_sc_mcu7t5v0__filltie
XFILLER_0_7_72 vdd vdd vss vss gf180mcu_fd_sc_mcu7t5v0__fillcap_64
X_292_ net122 _048_ clknet_3_1__leaf_prog_clk mem_left_track_17.DFFR_3_.Q vdd vdd
+ vss vss gf180mcu_fd_sc_mcu7t5v0__dffrnq_1
XTAP_TAPCELL_ROW_8_150 vdd vss gf180mcu_fd_sc_mcu7t5v0__filltie
XFILLER_0_13_42 vdd vdd vss vss gf180mcu_fd_sc_mcu7t5v0__fillcap_8
XFILLER_0_1_154 vdd vdd vss vss gf180mcu_fd_sc_mcu7t5v0__fill_2
XFILLER_0_14_249 vdd vdd vss vss gf180mcu_fd_sc_mcu7t5v0__fill_1
XFILLER_0_9_276 vdd vdd vss vss gf180mcu_fd_sc_mcu7t5v0__fillcap_4
XFILLER_0_45_352 vdd vdd vss vss gf180mcu_fd_sc_mcu7t5v0__fillcap_8
XTAP_TAPCELL_ROW_5_131 vdd vss gf180mcu_fd_sc_mcu7t5v0__filltie
XFILLER_0_13_282 vdd vdd vss vss gf180mcu_fd_sc_mcu7t5v0__fillcap_8
X_413_ net24 net69 vdd vdd vss vss gf180mcu_fd_sc_mcu7t5v0__clkbuf_1
X_344_ net146 _100_ clknet_3_0__leaf_prog_clk mem_bottom_track_21.DFFR_1_.Q vdd vdd
+ vss vss gf180mcu_fd_sc_mcu7t5v0__dffrnq_1
X_275_ net138 _031_ clknet_3_6__leaf_prog_clk mem_right_track_24.DFFR_2_.Q vdd vdd
+ vss vss gf180mcu_fd_sc_mcu7t5v0__dffrnq_1
XFILLER_0_42_311 vdd vdd vss vss gf180mcu_fd_sc_mcu7t5v0__fillcap_4
XFILLER_0_27_352 vdd vdd vss vss gf180mcu_fd_sc_mcu7t5v0__fillcap_8
XFILLER_0_10_285 vdd vdd vss vss gf180mcu_fd_sc_mcu7t5v0__fill_1
XFILLER_0_10_241 vdd vdd vss vss gf180mcu_fd_sc_mcu7t5v0__fillcap_4
XANTENNA__186__I _116_ vdd vdd vss vss gf180mcu_fd_sc_mcu7t5v0__antenna
X_327_ net162 _083_ clknet_3_4__leaf_prog_clk mem_bottom_track_7.DFFR_4_.Q vdd vdd
+ vss vss gf180mcu_fd_sc_mcu7t5v0__dffrnq_1
X_258_ net147 _014_ clknet_3_0__leaf_prog_clk mem_left_track_1.DFFR_1_.Q vdd vdd vss
+ vss gf180mcu_fd_sc_mcu7t5v0__dffrnq_1
XFILLER_0_24_355 vdd vdd vss vss gf180mcu_fd_sc_mcu7t5v0__fill_2
X_189_ _110_ _117_ vdd vdd vss vss gf180mcu_fd_sc_mcu7t5v0__buf_4
XTAP_TAPCELL_ROW_22_217 vdd vss gf180mcu_fd_sc_mcu7t5v0__filltie
XFILLER_0_15_377 vdd vdd vss vss gf180mcu_fd_sc_mcu7t5v0__fillcap_4
XFILLER_0_30_314 vdd vdd vss vss gf180mcu_fd_sc_mcu7t5v0__fill_1
XPHY_EDGE_ROW_41_Left_91 vdd vss gf180mcu_fd_sc_mcu7t5v0__endcap
XFILLER_0_12_325 vdd vdd vss vss gf180mcu_fd_sc_mcu7t5v0__fill_1
XFILLER_0_47_288 vdd vdd vss vss gf180mcu_fd_sc_mcu7t5v0__fillcap_32
XFILLER_0_7_352 vdd vdd vss vss gf180mcu_fd_sc_mcu7t5v0__fillcap_16
XFILLER_0_30_122 vdd vdd vss vss gf180mcu_fd_sc_mcu7t5v0__fillcap_4
XFILLER_0_30_177 vdd vdd vss vss gf180mcu_fd_sc_mcu7t5v0__fill_2
Xhold76 mem_bottom_track_27.DFFR_0_.Q net174 vdd vdd vss vss gf180mcu_fd_sc_mcu7t5v0__dlyb_1
Xhold54 mem_left_track_17.DFFR_0_.D net152 vdd vdd vss vss gf180mcu_fd_sc_mcu7t5v0__dlyb_1
Xhold10 mem_left_track_17.DFFR_4_.Q net108 vdd vdd vss vss gf180mcu_fd_sc_mcu7t5v0__dlyb_1
Xhold65 mem_left_track_1.DFFR_7_.Q net163 vdd vdd vss vss gf180mcu_fd_sc_mcu7t5v0__dlyb_1
Xhold32 mem_left_track_1.DFFR_1_.Q net130 vdd vdd vss vss gf180mcu_fd_sc_mcu7t5v0__dlyb_1
Xhold21 mem_left_track_9.DFFR_0_.Q net119 vdd vdd vss vss gf180mcu_fd_sc_mcu7t5v0__dlyb_1
Xhold43 mem_right_track_24.DFFR_5_.Q net141 vdd vdd vss vss gf180mcu_fd_sc_mcu7t5v0__dlyb_1
Xhold87 mem_right_track_32.DFFR_2_.Q net185 vdd vdd vss vss gf180mcu_fd_sc_mcu7t5v0__dlyb_1
Xhold98 mem_bottom_track_1.DFFR_0_.D net196 vdd vdd vss vss gf180mcu_fd_sc_mcu7t5v0__dlyb_1
XTAP_TAPCELL_ROW_41_312 vdd vss gf180mcu_fd_sc_mcu7t5v0__filltie
XFILLER_0_44_247 vdd vdd vss vss gf180mcu_fd_sc_mcu7t5v0__fillcap_64
XFILLER_0_4_311 vdd vdd vss vss gf180mcu_fd_sc_mcu7t5v0__fillcap_4
XFILLER_0_32_52 vdd vdd vss vss gf180mcu_fd_sc_mcu7t5v0__fill_2
XFILLER_0_32_41 vdd vdd vss vss gf180mcu_fd_sc_mcu7t5v0__fillcap_4
XFILLER_0_12_177 vdd vdd vss vss gf180mcu_fd_sc_mcu7t5v0__fillcap_8
XFILLER_0_32_2 vdd vdd vss vss gf180mcu_fd_sc_mcu7t5v0__fillcap_16
XFILLER_0_35_258 vdd vdd vss vss gf180mcu_fd_sc_mcu7t5v0__fill_1
Xoutput55 net55 chanx_right_out[11] vdd vdd vss vss gf180mcu_fd_sc_mcu7t5v0__buf_3
Xoutput44 net44 chanx_left_out[17] vdd vdd vss vss gf180mcu_fd_sc_mcu7t5v0__buf_3
Xoutput66 net66 chanx_right_out[6] vdd vdd vss vss gf180mcu_fd_sc_mcu7t5v0__buf_3
XFILLER_0_1_347 vdd vdd vss vss gf180mcu_fd_sc_mcu7t5v0__fill_2
XFILLER_0_34_280 vdd vdd vss vss gf180mcu_fd_sc_mcu7t5v0__fillcap_8
XTAP_TAPCELL_ROW_17_194 vdd vss gf180mcu_fd_sc_mcu7t5v0__filltie
X_291_ net107 _047_ clknet_3_3__leaf_prog_clk mem_left_track_17.DFFR_4_.Q vdd vdd
+ vss vss gf180mcu_fd_sc_mcu7t5v0__dffrnq_1
XANTENNA__189__I _110_ vdd vdd vss vss gf180mcu_fd_sc_mcu7t5v0__antenna
XANTENNA__331__CLK clknet_3_4__leaf_prog_clk vdd vdd vss vss gf180mcu_fd_sc_mcu7t5v0__antenna
XFILLER_0_1_199 vdd vdd vss vss gf180mcu_fd_sc_mcu7t5v0__fillcap_4
XFILLER_0_22_272 vdd vdd vss vss gf180mcu_fd_sc_mcu7t5v0__fillcap_8
XTAP_TAPCELL_ROW_5_132 vdd vss gf180mcu_fd_sc_mcu7t5v0__filltie
X_412_ net20 net70 vdd vdd vss vss gf180mcu_fd_sc_mcu7t5v0__clkbuf_1
X_343_ net125 _099_ clknet_3_1__leaf_prog_clk mem_bottom_track_19.DFFR_0_.Q vdd vdd
+ vss vss gf180mcu_fd_sc_mcu7t5v0__dffrnq_1
X_274_ net124 _030_ clknet_3_7__leaf_prog_clk mem_right_track_24.DFFR_3_.Q vdd vdd
+ vss vss gf180mcu_fd_sc_mcu7t5v0__dffrnq_1
XTAP_TAPCELL_ROW_19_201 vdd vss gf180mcu_fd_sc_mcu7t5v0__filltie
XFILLER_0_46_139 vdd vdd vss vss gf180mcu_fd_sc_mcu7t5v0__fillcap_16
XFILLER_0_6_225 vdd vdd vss vss gf180mcu_fd_sc_mcu7t5v0__fill_2
XFILLER_0_6_247 vdd vdd vss vss gf180mcu_fd_sc_mcu7t5v0__fillcap_64
X_326_ net191 _082_ clknet_3_4__leaf_prog_clk mem_bottom_track_7.DFFR_5_.Q vdd vdd
+ vss vss gf180mcu_fd_sc_mcu7t5v0__dffrnq_1
XFILLER_0_28_128 vdd vdd vss vss gf180mcu_fd_sc_mcu7t5v0__fill_2
XFILLER_0_3_206 vdd vdd vss vss gf180mcu_fd_sc_mcu7t5v0__fillcap_4
X_188_ _116_ _059_ vdd vdd vss vss gf180mcu_fd_sc_mcu7t5v0__clkinv_2
X_257_ net130 _013_ clknet_3_2__leaf_prog_clk mem_left_track_1.DFFR_2_.Q vdd vdd vss
+ vss gf180mcu_fd_sc_mcu7t5v0__dffrnq_1
XFILLER_0_29_8 vdd vdd vss vss gf180mcu_fd_sc_mcu7t5v0__fill_1
XFILLER_0_35_96 vdd vdd vss vss gf180mcu_fd_sc_mcu7t5v0__fillcap_4
XTAP_TAPCELL_ROW_22_218 vdd vss gf180mcu_fd_sc_mcu7t5v0__filltie
XFILLER_0_2_283 vdd vdd vss vss gf180mcu_fd_sc_mcu7t5v0__fill_1
XFILLER_0_30_359 vdd vdd vss vss gf180mcu_fd_sc_mcu7t5v0__fill_1
XANTENNA_input34_I chanx_right_in[7] vdd vdd vss vss gf180mcu_fd_sc_mcu7t5v0__antenna
XFILLER_0_18_183 vdd vdd vss vss gf180mcu_fd_sc_mcu7t5v0__fill_2
XFILLER_0_21_348 vdd vdd vss vss gf180mcu_fd_sc_mcu7t5v0__fill_2
XFILLER_0_21_10 vdd vdd vss vss gf180mcu_fd_sc_mcu7t5v0__fillcap_4
X_309_ net197 _065_ clknet_3_7__leaf_prog_clk mem_bottom_track_1.DFFR_4_.Q vdd vdd
+ vss vss gf180mcu_fd_sc_mcu7t5v0__dffrnq_1
XFILLER_0_24_131 vdd vdd vss vss gf180mcu_fd_sc_mcu7t5v0__fillcap_4
XFILLER_0_47_212 vdd vdd vss vss gf180mcu_fd_sc_mcu7t5v0__fillcap_64
XFILLER_0_15_142 vdd vdd vss vss gf180mcu_fd_sc_mcu7t5v0__fill_2
Xhold11 mem_bottom_track_19.DFFR_1_.Q net109 vdd vdd vss vss gf180mcu_fd_sc_mcu7t5v0__dlyb_1
Xhold22 mem_left_track_33.DFFR_0_.Q net120 vdd vdd vss vss gf180mcu_fd_sc_mcu7t5v0__dlyb_1
Xhold77 mem_bottom_track_7.DFFR_5_.Q net175 vdd vdd vss vss gf180mcu_fd_sc_mcu7t5v0__dlyb_1
Xhold88 mem_bottom_track_9.DFFR_0_.Q net186 vdd vdd vss vss gf180mcu_fd_sc_mcu7t5v0__dlyb_1
Xhold33 mem_bottom_track_1.DFFR_5_.Q net131 vdd vdd vss vss gf180mcu_fd_sc_mcu7t5v0__dlyb_1
Xhold44 mem_left_track_25.DFFR_5_.Q net142 vdd vdd vss vss gf180mcu_fd_sc_mcu7t5v0__dlyb_1
Xhold99 mem_bottom_track_1.DFFR_3_.Q net197 vdd vdd vss vss gf180mcu_fd_sc_mcu7t5v0__dlyb_1
Xhold55 mem_right_track_16.DFFR_1_.Q net153 vdd vdd vss vss gf180mcu_fd_sc_mcu7t5v0__dlyb_1
Xhold66 mem_right_track_32.DFFR_4_.Q net164 vdd vdd vss vss gf180mcu_fd_sc_mcu7t5v0__dlyb_1
XTAP_TAPCELL_ROW_41_313 vdd vss gf180mcu_fd_sc_mcu7t5v0__filltie
XFILLER_0_16_54 vdd vdd vss vss gf180mcu_fd_sc_mcu7t5v0__fill_2
XFILLER_0_29_212 vdd vdd vss vss gf180mcu_fd_sc_mcu7t5v0__fillcap_8
XFILLER_0_25_2 vdd vdd vss vss gf180mcu_fd_sc_mcu7t5v0__fillcap_16
Xoutput45 net45 chanx_left_out[18] vdd vdd vss vss gf180mcu_fd_sc_mcu7t5v0__buf_3
Xoutput56 net56 chanx_right_out[13] vdd vdd vss vss gf180mcu_fd_sc_mcu7t5v0__clkbuf_3
Xoutput67 net67 chanx_right_out[7] vdd vdd vss vss gf180mcu_fd_sc_mcu7t5v0__buf_3
XFILLER_0_26_204 vdd vdd vss vss gf180mcu_fd_sc_mcu7t5v0__fill_1
XFILLER_0_1_337 vdd vdd vss vss gf180mcu_fd_sc_mcu7t5v0__fillcap_4
XFILLER_0_49_329 vdd vdd vss vss gf180mcu_fd_sc_mcu7t5v0__fill_1
XFILLER_0_49_318 vdd vdd vss vss gf180mcu_fd_sc_mcu7t5v0__fill_1
XTAP_TAPCELL_ROW_17_195 vdd vss gf180mcu_fd_sc_mcu7t5v0__filltie
XFILLER_0_0_370 vdd vdd vss vss gf180mcu_fd_sc_mcu7t5v0__fill_2
X_290_ net108 _046_ clknet_3_6__leaf_prog_clk mem_left_track_17.DFFR_5_.Q vdd vdd
+ vss vss gf180mcu_fd_sc_mcu7t5v0__dffrnq_1
XFILLER_0_13_88 vdd vdd vss vss gf180mcu_fd_sc_mcu7t5v0__fill_1
XTAP_TAPCELL_ROW_14_176 vdd vss gf180mcu_fd_sc_mcu7t5v0__filltie
XFILLER_0_14_229 vdd vdd vss vss gf180mcu_fd_sc_mcu7t5v0__fill_2
XFILLER_0_22_251 vdd vdd vss vss gf180mcu_fd_sc_mcu7t5v0__fillcap_4
XFILLER_0_1_156 vdd vdd vss vss gf180mcu_fd_sc_mcu7t5v0__fill_1
XFILLER_0_49_148 vdd vdd vss vss gf180mcu_fd_sc_mcu7t5v0__fillcap_8
XFILLER_0_49_104 vdd vdd vss vss gf180mcu_fd_sc_mcu7t5v0__fillcap_4
XFILLER_0_9_212 vdd vdd vss vss gf180mcu_fd_sc_mcu7t5v0__fillcap_64
XFILLER_0_13_262 vdd vdd vss vss gf180mcu_fd_sc_mcu7t5v0__fill_1
XTAP_TAPCELL_ROW_5_133 vdd vss gf180mcu_fd_sc_mcu7t5v0__filltie
X_411_ net34 net71 vdd vdd vss vss gf180mcu_fd_sc_mcu7t5v0__clkbuf_1
X_342_ net139 _098_ clknet_3_1__leaf_prog_clk mem_bottom_track_19.DFFR_1_.Q vdd vdd
+ vss vss gf180mcu_fd_sc_mcu7t5v0__dffrnq_1
XTAP_TAPCELL_ROW_28_246 vdd vss gf180mcu_fd_sc_mcu7t5v0__filltie
XTAP_TAPCELL_ROW_36_290 vdd vss gf180mcu_fd_sc_mcu7t5v0__filltie
X_273_ net207 _029_ clknet_3_3__leaf_prog_clk mem_right_track_24.DFFR_4_.Q vdd vdd
+ vss vss gf180mcu_fd_sc_mcu7t5v0__dffrnq_1
XFILLER_0_36_365 vdd vdd vss vss gf180mcu_fd_sc_mcu7t5v0__fillcap_4
XTAP_TAPCELL_ROW_19_202 vdd vss gf180mcu_fd_sc_mcu7t5v0__filltie
XFILLER_0_46_107 vdd vdd vss vss gf180mcu_fd_sc_mcu7t5v0__fillcap_32
XTAP_TAPCELL_ROW_33_271 vdd vss gf180mcu_fd_sc_mcu7t5v0__filltie
X_325_ net128 _081_ clknet_3_4__leaf_prog_clk mem_bottom_track_5.DFFR_0_.Q vdd vdd
+ vss vss gf180mcu_fd_sc_mcu7t5v0__dffrnq_1
XFILLER_0_10_34 vdd vdd vss vss gf180mcu_fd_sc_mcu7t5v0__fill_1
X_256_ net110 _012_ clknet_3_0__leaf_prog_clk mem_left_track_1.DFFR_3_.Q vdd vdd vss
+ vss gf180mcu_fd_sc_mcu7t5v0__dffrnq_1
X_187_ _116_ _058_ vdd vdd vss vss gf180mcu_fd_sc_mcu7t5v0__clkinv_2
XFILLER_0_24_313 vdd vdd vss vss gf180mcu_fd_sc_mcu7t5v0__fill_2
XFILLER_0_24_357 vdd vdd vss vss gf180mcu_fd_sc_mcu7t5v0__fill_1
XFILLER_0_36_173 vdd vdd vss vss gf180mcu_fd_sc_mcu7t5v0__fill_2
XFILLER_0_19_98 vdd vdd vss vss gf180mcu_fd_sc_mcu7t5v0__fill_1
XTAP_TAPCELL_ROW_47_341 vdd vss gf180mcu_fd_sc_mcu7t5v0__filltie
XTAP_TAPCELL_ROW_22_219 vdd vss gf180mcu_fd_sc_mcu7t5v0__filltie
XFILLER_0_2_240 vdd vdd vss vss gf180mcu_fd_sc_mcu7t5v0__fillcap_4
XANTENNA_input27_I chanx_right_in[18] vdd vdd vss vss gf180mcu_fd_sc_mcu7t5v0__antenna
XFILLER_0_21_327 vdd vdd vss vss gf180mcu_fd_sc_mcu7t5v0__fill_1
XPHY_EDGE_ROW_28_Left_78 vdd vss gf180mcu_fd_sc_mcu7t5v0__endcap
X_239_ _121_ _105_ vdd vdd vss vss gf180mcu_fd_sc_mcu7t5v0__clkinv_2
X_308_ net151 _064_ clknet_3_7__leaf_prog_clk mem_bottom_track_1.DFFR_5_.Q vdd vdd
+ vss vss gf180mcu_fd_sc_mcu7t5v0__dffrnq_1
XFILLER_0_20_371 vdd vdd vss vss gf180mcu_fd_sc_mcu7t5v0__fillcap_8
XFILLER_0_15_132 vdd vdd vss vss gf180mcu_fd_sc_mcu7t5v0__fillcap_8
Xhold34 mem_bottom_track_15.DFFR_0_.Q net132 vdd vdd vss vss gf180mcu_fd_sc_mcu7t5v0__dlyb_1
Xhold56 mem_bottom_track_5.DFFR_3_.Q net154 vdd vdd vss vss gf180mcu_fd_sc_mcu7t5v0__dlyb_1
Xhold45 mem_bottom_track_5.DFFR_0_.Q net143 vdd vdd vss vss gf180mcu_fd_sc_mcu7t5v0__dlyb_1
Xhold23 mem_bottom_track_5.DFFR_1_.Q net121 vdd vdd vss vss gf180mcu_fd_sc_mcu7t5v0__dlyb_1
Xhold12 mem_left_track_1.DFFR_2_.Q net110 vdd vdd vss vss gf180mcu_fd_sc_mcu7t5v0__dlyb_1
XFILLER_0_30_168 vdd vdd vss vss gf180mcu_fd_sc_mcu7t5v0__fill_1
Xhold78 mem_bottom_track_29.DFFR_0_.Q net176 vdd vdd vss vss gf180mcu_fd_sc_mcu7t5v0__dlyb_1
Xhold89 mem_right_track_0.DFFR_5_.Q net187 vdd vdd vss vss gf180mcu_fd_sc_mcu7t5v0__dlyb_1
Xhold67 mem_right_track_16.DFFR_3_.Q net165 vdd vdd vss vss gf180mcu_fd_sc_mcu7t5v0__dlyb_1
XTAP_TAPCELL_ROW_41_314 vdd vss gf180mcu_fd_sc_mcu7t5v0__filltie
XFILLER_0_8_107 vdd vdd vss vss gf180mcu_fd_sc_mcu7t5v0__fillcap_64
XFILLER_0_29_224 vdd vdd vss vss gf180mcu_fd_sc_mcu7t5v0__fill_2
XFILLER_0_29_202 vdd vdd vss vss gf180mcu_fd_sc_mcu7t5v0__fillcap_8
XFILLER_0_29_279 vdd vdd vss vss gf180mcu_fd_sc_mcu7t5v0__fill_1
XFILLER_0_20_190 vdd vdd vss vss gf180mcu_fd_sc_mcu7t5v0__fillcap_8
XFILLER_0_18_2 vdd vdd vss vss gf180mcu_fd_sc_mcu7t5v0__fill_2
XFILLER_0_7_162 vdd vdd vss vss gf180mcu_fd_sc_mcu7t5v0__fill_1
XANTENNA_clkbuf_3_4__f_prog_clk_I clknet_0_prog_clk vdd vdd vss vss gf180mcu_fd_sc_mcu7t5v0__antenna
XFILLER_0_35_205 vdd vdd vss vss gf180mcu_fd_sc_mcu7t5v0__fillcap_4
Xoutput46 net46 chanx_left_out[19] vdd vdd vss vss gf180mcu_fd_sc_mcu7t5v0__buf_3
XFILLER_0_43_282 vdd vdd vss vss gf180mcu_fd_sc_mcu7t5v0__fillcap_64
Xoutput57 net57 chanx_right_out[14] vdd vdd vss vss gf180mcu_fd_sc_mcu7t5v0__buf_3
Xoutput68 net68 chanx_right_out[9] vdd vdd vss vss gf180mcu_fd_sc_mcu7t5v0__buf_3
XPHY_EDGE_ROW_19_Right_19 vdd vss gf180mcu_fd_sc_mcu7t5v0__endcap
XFILLER_0_41_208 vdd vdd vss vss gf180mcu_fd_sc_mcu7t5v0__fill_2
XFILLER_0_1_349 vdd vdd vss vss gf180mcu_fd_sc_mcu7t5v0__fill_1
XPHY_EDGE_ROW_28_Right_28 vdd vss gf180mcu_fd_sc_mcu7t5v0__endcap
XPHY_EDGE_ROW_37_Right_37 vdd vss gf180mcu_fd_sc_mcu7t5v0__endcap
XPHY_EDGE_ROW_46_Right_46 vdd vss gf180mcu_fd_sc_mcu7t5v0__endcap
XFILLER_0_40_241 vdd vdd vss vss gf180mcu_fd_sc_mcu7t5v0__fillcap_4
XPHY_EDGE_ROW_15_Left_65 vdd vss gf180mcu_fd_sc_mcu7t5v0__endcap
XFILLER_0_7_2 vdd vdd vss vss gf180mcu_fd_sc_mcu7t5v0__fillcap_64
XFILLER_0_39_352 vdd vdd vss vss gf180mcu_fd_sc_mcu7t5v0__fillcap_32
XFILLER_0_13_67 vdd vdd vss vss gf180mcu_fd_sc_mcu7t5v0__fill_2
XTAP_TAPCELL_ROW_14_177 vdd vss gf180mcu_fd_sc_mcu7t5v0__filltie
XANTENNA_input1_I ccff_head vdd vdd vss vss gf180mcu_fd_sc_mcu7t5v0__antenna
XTAP_TAPCELL_ROW_5_134 vdd vss gf180mcu_fd_sc_mcu7t5v0__filltie
XTAP_TAPCELL_ROW_28_247 vdd vss gf180mcu_fd_sc_mcu7t5v0__filltie
X_410_ net30 net72 vdd vdd vss vss gf180mcu_fd_sc_mcu7t5v0__clkbuf_1
X_341_ net133 _097_ clknet_3_1__leaf_prog_clk mem_bottom_track_17.DFFR_0_.Q vdd vdd
+ vss vss gf180mcu_fd_sc_mcu7t5v0__dffrnq_1
X_272_ net113 _028_ clknet_3_6__leaf_prog_clk mem_right_track_24.DFFR_5_.Q vdd vdd
+ vss vss gf180mcu_fd_sc_mcu7t5v0__dffrnq_1
XFILLER_0_36_311 vdd vdd vss vss gf180mcu_fd_sc_mcu7t5v0__fillcap_4