* NGSPICE file created from sb_2__1_.ext - technology: gf180mcuD

* Black-box entry subcircuit for gf180mcu_fd_sc_mcu7t5v0__fillcap_4 abstract view
.subckt gf180mcu_fd_sc_mcu7t5v0__fillcap_4 VDD VNW VPW VSS
.ends

* Black-box entry subcircuit for gf180mcu_fd_sc_mcu7t5v0__fill_2 abstract view
.subckt gf180mcu_fd_sc_mcu7t5v0__fill_2 VDD VNW VPW VSS
.ends

* Black-box entry subcircuit for gf180mcu_fd_sc_mcu7t5v0__fillcap_8 abstract view
.subckt gf180mcu_fd_sc_mcu7t5v0__fillcap_8 VDD VNW VPW VSS
.ends

* Black-box entry subcircuit for gf180mcu_fd_sc_mcu7t5v0__filltie abstract view
.subckt gf180mcu_fd_sc_mcu7t5v0__filltie VDD VSS
.ends

* Black-box entry subcircuit for gf180mcu_fd_sc_mcu7t5v0__dffrnq_1 abstract view
.subckt gf180mcu_fd_sc_mcu7t5v0__dffrnq_1 D RN CLK Q VDD VNW VPW VSS
.ends

* Black-box entry subcircuit for gf180mcu_fd_sc_mcu7t5v0__fill_1 abstract view
.subckt gf180mcu_fd_sc_mcu7t5v0__fill_1 VDD VNW VPW VSS
.ends

* Black-box entry subcircuit for gf180mcu_fd_sc_mcu7t5v0__fillcap_16 abstract view
.subckt gf180mcu_fd_sc_mcu7t5v0__fillcap_16 VDD VNW VPW VSS
.ends

* Black-box entry subcircuit for gf180mcu_fd_sc_mcu7t5v0__antenna abstract view
.subckt gf180mcu_fd_sc_mcu7t5v0__antenna I VDD VNW VPW VSS
.ends

* Black-box entry subcircuit for gf180mcu_fd_sc_mcu7t5v0__buf_4 abstract view
.subckt gf180mcu_fd_sc_mcu7t5v0__buf_4 I Z VDD VNW VPW VSS
.ends

* Black-box entry subcircuit for gf180mcu_fd_sc_mcu7t5v0__clkinv_2 abstract view
.subckt gf180mcu_fd_sc_mcu7t5v0__clkinv_2 I ZN VDD VNW VPW VSS
.ends

* Black-box entry subcircuit for gf180mcu_fd_sc_mcu7t5v0__tiel abstract view
.subckt gf180mcu_fd_sc_mcu7t5v0__tiel ZN VDD VNW VPW VSS
.ends

* Black-box entry subcircuit for gf180mcu_fd_sc_mcu7t5v0__fillcap_64 abstract view
.subckt gf180mcu_fd_sc_mcu7t5v0__fillcap_64 VDD VNW VPW VSS
.ends

* Black-box entry subcircuit for gf180mcu_fd_sc_mcu7t5v0__dlyb_1 abstract view
.subckt gf180mcu_fd_sc_mcu7t5v0__dlyb_1 I Z VDD VNW VPW VSS
.ends

* Black-box entry subcircuit for gf180mcu_fd_sc_mcu7t5v0__endcap abstract view
.subckt gf180mcu_fd_sc_mcu7t5v0__endcap VDD VSS
.ends

* Black-box entry subcircuit for gf180mcu_fd_sc_mcu7t5v0__buf_3 abstract view
.subckt gf180mcu_fd_sc_mcu7t5v0__buf_3 I Z VDD VNW VPW VSS
.ends

* Black-box entry subcircuit for gf180mcu_fd_sc_mcu7t5v0__fillcap_32 abstract view
.subckt gf180mcu_fd_sc_mcu7t5v0__fillcap_32 VDD VNW VPW VSS
.ends

* Black-box entry subcircuit for gf180mcu_fd_sc_mcu7t5v0__clkbuf_4 abstract view
.subckt gf180mcu_fd_sc_mcu7t5v0__clkbuf_4 I Z VDD VNW VPW VSS
.ends

* Black-box entry subcircuit for gf180mcu_fd_sc_mcu7t5v0__clkbuf_1 abstract view
.subckt gf180mcu_fd_sc_mcu7t5v0__clkbuf_1 I Z VDD VNW VPW VSS
.ends

* Black-box entry subcircuit for gf180mcu_fd_sc_mcu7t5v0__clkbuf_3 abstract view
.subckt gf180mcu_fd_sc_mcu7t5v0__clkbuf_3 I Z VDD VNW VPW VSS
.ends

* Black-box entry subcircuit for gf180mcu_fd_sc_mcu7t5v0__clkbuf_16 abstract view
.subckt gf180mcu_fd_sc_mcu7t5v0__clkbuf_16 I Z VDD VNW VPW VSS
.ends

* Black-box entry subcircuit for gf180mcu_fd_sc_mcu7t5v0__buf_1 abstract view
.subckt gf180mcu_fd_sc_mcu7t5v0__buf_1 I Z VDD VNW VPW VSS
.ends

.subckt sb_2__1_ bottom_left_grid_right_width_0_height_0_subtile_0__pin_O_1_ bottom_left_grid_right_width_0_height_0_subtile_0__pin_O_5_
+ bottom_right_grid_left_width_0_height_0_subtile_0__pin_inpad_0_ bottom_right_grid_left_width_0_height_0_subtile_1__pin_inpad_0_
+ bottom_right_grid_left_width_0_height_0_subtile_2__pin_inpad_0_ bottom_right_grid_left_width_0_height_0_subtile_3__pin_inpad_0_
+ ccff_head ccff_tail chanx_left_in[0] chanx_left_in[10] chanx_left_in[11] chanx_left_in[12]
+ chanx_left_in[13] chanx_left_in[14] chanx_left_in[15] chanx_left_in[16] chanx_left_in[17]
+ chanx_left_in[18] chanx_left_in[19] chanx_left_in[1] chanx_left_in[2] chanx_left_in[3]
+ chanx_left_in[4] chanx_left_in[5] chanx_left_in[6] chanx_left_in[7] chanx_left_in[8]
+ chanx_left_in[9] chanx_left_out[0] chanx_left_out[16] chanx_left_out[17] chanx_left_out[18]
+ chanx_left_out[19] chanx_left_out[1] chanx_left_out[2] chanx_left_out[3] chanx_left_out[4]
+ chanx_left_out[5] chanx_left_out[6] chany_bottom_in[0] chany_bottom_in[10] chany_bottom_in[11]
+ chany_bottom_in[12] chany_bottom_in[13] chany_bottom_in[14] chany_bottom_in[15]
+ chany_bottom_in[16] chany_bottom_in[17] chany_bottom_in[18] chany_bottom_in[19]
+ chany_bottom_in[1] chany_bottom_in[2] chany_bottom_in[3] chany_bottom_in[4] chany_bottom_in[5]
+ chany_bottom_in[6] chany_bottom_in[7] chany_bottom_in[8] chany_bottom_in[9] chany_bottom_out[10]
+ chany_bottom_out[11] chany_bottom_out[13] chany_bottom_out[14] chany_bottom_out[15]
+ chany_bottom_out[17] chany_bottom_out[18] chany_bottom_out[19] chany_bottom_out[1]
+ chany_bottom_out[2] chany_bottom_out[3] chany_bottom_out[5] chany_bottom_out[6]
+ chany_bottom_out[7] chany_bottom_out[9] chany_top_in[0] chany_top_in[10] chany_top_in[11]
+ chany_top_in[12] chany_top_in[13] chany_top_in[14] chany_top_in[15] chany_top_in[16]
+ chany_top_in[17] chany_top_in[18] chany_top_in[19] chany_top_in[1] chany_top_in[2]
+ chany_top_in[3] chany_top_in[4] chany_top_in[5] chany_top_in[6] chany_top_in[7]
+ chany_top_in[8] chany_top_in[9] chany_top_out[10] chany_top_out[11] chany_top_out[12]
+ chany_top_out[13] chany_top_out[14] chany_top_out[15] chany_top_out[17] chany_top_out[18]
+ chany_top_out[19] chany_top_out[1] chany_top_out[2] chany_top_out[3] chany_top_out[5]
+ chany_top_out[6] chany_top_out[7] chany_top_out[9] left_bottom_grid_top_width_0_height_0_subtile_0__pin_O_0_
+ left_bottom_grid_top_width_0_height_0_subtile_0__pin_O_4_ left_top_grid_bottom_width_0_height_0_subtile_0__pin_O_2_
+ left_top_grid_bottom_width_0_height_0_subtile_0__pin_O_6_ pReset prog_clk top_left_grid_right_width_0_height_0_subtile_0__pin_O_1_
+ top_left_grid_right_width_0_height_0_subtile_0__pin_O_5_ top_right_grid_left_width_0_height_0_subtile_0__pin_inpad_0_
+ top_right_grid_left_width_0_height_0_subtile_1__pin_inpad_0_ top_right_grid_left_width_0_height_0_subtile_2__pin_inpad_0_
+ top_right_grid_left_width_0_height_0_subtile_3__pin_inpad_0_ vdd vss chany_bottom_out[8]
+ chanx_left_out[8] chany_bottom_out[12] chany_bottom_out[16] chanx_left_out[9] chany_top_out[0]
+ chanx_left_out[10] chany_top_out[4] chanx_left_out[11] chany_top_out[8] chanx_left_out[12]
+ chanx_left_out[13] chanx_left_out[14] chany_top_out[16] chanx_left_out[15] chany_bottom_out[0]
+ chany_bottom_out[4] chanx_left_out[7]
XFILLER_0_17_288 vdd vdd vss vss gf180mcu_fd_sc_mcu7t5v0__fillcap_4
XFILLER_0_32_225 vdd vdd vss vss gf180mcu_fd_sc_mcu7t5v0__fill_2
XFILLER_0_32_247 vdd vdd vss vss gf180mcu_fd_sc_mcu7t5v0__fillcap_8
XTAP_TAPCELL_ROW_23_194 vdd vss gf180mcu_fd_sc_mcu7t5v0__filltie
X_294_ net109 _050_ clknet_3_3__leaf_prog_clk mem_bottom_track_17.DFFR_1_.Q vdd vdd
+ vss vss gf180mcu_fd_sc_mcu7t5v0__dffrnq_1
XFILLER_0_3_28 vdd vdd vss vss gf180mcu_fd_sc_mcu7t5v0__fill_1
XTAP_TAPCELL_ROW_6_118 vdd vss gf180mcu_fd_sc_mcu7t5v0__filltie
XFILLER_0_1_174 vdd vdd vss vss gf180mcu_fd_sc_mcu7t5v0__fillcap_16
XFILLER_0_37_328 vdd vdd vss vss gf180mcu_fd_sc_mcu7t5v0__fill_1
XTAP_TAPCELL_ROW_28_220 vdd vss gf180mcu_fd_sc_mcu7t5v0__filltie
X_346_ net191 _102_ clknet_3_5__leaf_prog_clk mem_left_track_15.DFFR_1_.Q vdd vdd
+ vss vss gf180mcu_fd_sc_mcu7t5v0__dffrnq_1
XTAP_TAPCELL_ROW_11_142 vdd vss gf180mcu_fd_sc_mcu7t5v0__filltie
X_277_ net118 _033_ clknet_3_4__leaf_prog_clk mem_top_track_24.DFFR_0_.Q vdd vdd vss
+ vss gf180mcu_fd_sc_mcu7t5v0__dffrnq_1
XFILLER_0_6_244 vdd vdd vss vss gf180mcu_fd_sc_mcu7t5v0__fill_1
XFILLER_0_19_328 vdd vdd vss vss gf180mcu_fd_sc_mcu7t5v0__fill_2
XTAP_TAPCELL_ROW_34_245 vdd vss gf180mcu_fd_sc_mcu7t5v0__filltie
XANTENNA_input36_I pReset vdd vdd vss vss gf180mcu_fd_sc_mcu7t5v0__antenna
X_200_ _110_ _118_ vdd vdd vss vss gf180mcu_fd_sc_mcu7t5v0__buf_4
XFILLER_0_37_136 vdd vdd vss vss gf180mcu_fd_sc_mcu7t5v0__fillcap_4
X_131_ _111_ _007_ vdd vdd vss vss gf180mcu_fd_sc_mcu7t5v0__clkinv_2
Xsb_2__1__82 chanx_left_out[15] vdd vdd vss vss gf180mcu_fd_sc_mcu7t5v0__tiel
Xsb_2__1__93 chanx_left_out[4] vdd vdd vss vss gf180mcu_fd_sc_mcu7t5v0__tiel
X_329_ net138 _085_ clknet_3_7__leaf_prog_clk mem_left_track_7.DFFR_2_.Q vdd vdd vss
+ vss gf180mcu_fd_sc_mcu7t5v0__dffrnq_1
XFILLER_0_10_41 vdd vdd vss vss gf180mcu_fd_sc_mcu7t5v0__fillcap_8
XFILLER_0_19_72 vdd vdd vss vss gf180mcu_fd_sc_mcu7t5v0__fill_2
XFILLER_0_42_172 vdd vdd vss vss gf180mcu_fd_sc_mcu7t5v0__fill_2
XFILLER_0_27_2 vdd vdd vss vss gf180mcu_fd_sc_mcu7t5v0__fill_2
XFILLER_0_1_72 vdd vdd vss vss gf180mcu_fd_sc_mcu7t5v0__fillcap_64
Xhold63 mem_top_track_24.DFFR_4_.Q net160 vdd vdd vss vss gf180mcu_fd_sc_mcu7t5v0__dlyb_1
Xhold52 mem_top_track_24.DFFR_1_.Q net149 vdd vdd vss vss gf180mcu_fd_sc_mcu7t5v0__dlyb_1
Xhold74 mem_bottom_track_1.DFFR_1_.Q net171 vdd vdd vss vss gf180mcu_fd_sc_mcu7t5v0__dlyb_1
Xhold30 mem_left_track_5.DFFR_1_.Q net127 vdd vdd vss vss gf180mcu_fd_sc_mcu7t5v0__dlyb_1
Xhold41 mem_left_track_7.DFFR_1_.Q net138 vdd vdd vss vss gf180mcu_fd_sc_mcu7t5v0__dlyb_1
Xhold96 mem_bottom_track_1.DFFR_6_.Q net193 vdd vdd vss vss gf180mcu_fd_sc_mcu7t5v0__dlyb_1
XANTENNA__167__I _110_ vdd vdd vss vss gf180mcu_fd_sc_mcu7t5v0__antenna
Xhold85 mem_left_track_3.DFFR_3_.Q net182 vdd vdd vss vss gf180mcu_fd_sc_mcu7t5v0__dlyb_1
XANTENNA__247__CLK clknet_3_0__leaf_prog_clk vdd vdd vss vss gf180mcu_fd_sc_mcu7t5v0__antenna
XPHY_EDGE_ROW_16_Left_59 vdd vss gf180mcu_fd_sc_mcu7t5v0__endcap
XFILLER_0_35_212 vdd vdd vss vss gf180mcu_fd_sc_mcu7t5v0__fillcap_64
Xoutput64 net64 chany_top_out[19] vdd vdd vss vss gf180mcu_fd_sc_mcu7t5v0__buf_3
Xoutput53 net53 chany_bottom_out[5] vdd vdd vss vss gf180mcu_fd_sc_mcu7t5v0__buf_3
Xoutput42 net42 chany_bottom_out[10] vdd vdd vss vss gf180mcu_fd_sc_mcu7t5v0__buf_3
XANTENNA_clkbuf_3_7__f_prog_clk_I clknet_0_prog_clk vdd vdd vss vss gf180mcu_fd_sc_mcu7t5v0__antenna
XFILLER_0_27_72 vdd vdd vss vss gf180mcu_fd_sc_mcu7t5v0__fillcap_4
XTAP_TAPCELL_ROW_17_170 vdd vss gf180mcu_fd_sc_mcu7t5v0__filltie
XFILLER_0_40_281 vdd vdd vss vss gf180mcu_fd_sc_mcu7t5v0__fillcap_4
X_293_ net119 _049_ clknet_3_2__leaf_prog_clk mem_bottom_track_17.DFFR_2_.Q vdd vdd
+ vss vss gf180mcu_fd_sc_mcu7t5v0__dffrnq_1
XTAP_TAPCELL_ROW_23_195 vdd vss gf180mcu_fd_sc_mcu7t5v0__filltie
XFILLER_0_3_18 vdd vdd vss vss gf180mcu_fd_sc_mcu7t5v0__fillcap_8
XFILLER_0_31_270 vdd vdd vss vss gf180mcu_fd_sc_mcu7t5v0__fill_2
XFILLER_0_1_142 vdd vdd vss vss gf180mcu_fd_sc_mcu7t5v0__fillcap_32
XTAP_TAPCELL_ROW_6_119 vdd vss gf180mcu_fd_sc_mcu7t5v0__filltie
XFILLER_0_1_197 vdd vdd vss vss gf180mcu_fd_sc_mcu7t5v0__fillcap_8
XFILLER_0_9_220 vdd vdd vss vss gf180mcu_fd_sc_mcu7t5v0__fill_1
XPHY_EDGE_ROW_19_Left_62 vdd vss gf180mcu_fd_sc_mcu7t5v0__endcap
X_276_ net145 _032_ clknet_3_4__leaf_prog_clk mem_top_track_24.DFFR_1_.Q vdd vdd vss
+ vss gf180mcu_fd_sc_mcu7t5v0__dffrnq_1
X_345_ net101 _101_ clknet_3_5__leaf_prog_clk mem_left_track_13.DFFR_0_.Q vdd vdd
+ vss vss gf180mcu_fd_sc_mcu7t5v0__dffrnq_1
XTAP_TAPCELL_ROW_11_143 vdd vss gf180mcu_fd_sc_mcu7t5v0__filltie
XTAP_TAPCELL_ROW_34_246 vdd vss gf180mcu_fd_sc_mcu7t5v0__filltie
XPHY_EDGE_ROW_12_Right_12 vdd vss gf180mcu_fd_sc_mcu7t5v0__endcap
XANTENNA_input29_I chany_top_in[2] vdd vdd vss vss gf180mcu_fd_sc_mcu7t5v0__antenna
XTAP_TAPCELL_ROW_2_100 vdd vss gf180mcu_fd_sc_mcu7t5v0__filltie
XPHY_EDGE_ROW_21_Right_21 vdd vss gf180mcu_fd_sc_mcu7t5v0__endcap
XPHY_EDGE_ROW_4_Left_47 vdd vss gf180mcu_fd_sc_mcu7t5v0__endcap
X_130_ _111_ _006_ vdd vdd vss vss gf180mcu_fd_sc_mcu7t5v0__clkinv_2
XPHY_EDGE_ROW_30_Right_30 vdd vss gf180mcu_fd_sc_mcu7t5v0__endcap
Xsb_2__1__94 chanx_left_out[3] vdd vdd vss vss gf180mcu_fd_sc_mcu7t5v0__tiel
X_259_ net200 _015_ clknet_3_2__leaf_prog_clk mem_bottom_track_1.DFFR_0_.Q vdd vdd
+ vss vss gf180mcu_fd_sc_mcu7t5v0__dffrnq_1
X_328_ net146 _084_ clknet_3_7__leaf_prog_clk mem_left_track_7.DFFR_3_.Q vdd vdd vss
+ vss gf180mcu_fd_sc_mcu7t5v0__dffrnq_1
Xsb_2__1__83 chanx_left_out[14] vdd vdd vss vss gf180mcu_fd_sc_mcu7t5v0__tiel
Xsb_2__1__72 chany_top_out[16] vdd vdd vss vss gf180mcu_fd_sc_mcu7t5v0__tiel
XFILLER_0_10_53 vdd vdd vss vss gf180mcu_fd_sc_mcu7t5v0__fill_1
XTAP_TAPCELL_ROW_0_90 vdd vss gf180mcu_fd_sc_mcu7t5v0__filltie
XFILLER_0_19_137 vdd vdd vss vss gf180mcu_fd_sc_mcu7t5v0__fill_2
XFILLER_0_34_107 vdd vdd vss vss gf180mcu_fd_sc_mcu7t5v0__fillcap_8
XFILLER_0_35_72 vdd vdd vss vss gf180mcu_fd_sc_mcu7t5v0__fillcap_64
XFILLER_0_30_313 vdd vdd vss vss gf180mcu_fd_sc_mcu7t5v0__fill_2
XFILLER_0_2_281 vdd vdd vss vss gf180mcu_fd_sc_mcu7t5v0__fillcap_16
XFILLER_0_0_218 vdd vdd vss vss gf180mcu_fd_sc_mcu7t5v0__fill_2
XFILLER_0_21_324 vdd vdd vss vss gf180mcu_fd_sc_mcu7t5v0__fill_1
XFILLER_0_16_107 vdd vdd vss vss gf180mcu_fd_sc_mcu7t5v0__fill_2
XFILLER_0_24_162 vdd vdd vss vss gf180mcu_fd_sc_mcu7t5v0__fill_2
XFILLER_0_15_184 vdd vdd vss vss gf180mcu_fd_sc_mcu7t5v0__fillcap_4
XFILLER_0_30_154 vdd vdd vss vss gf180mcu_fd_sc_mcu7t5v0__fill_1
Xhold75 mem_top_track_24.DFFR_2_.Q net172 vdd vdd vss vss gf180mcu_fd_sc_mcu7t5v0__dlyb_1
Xhold20 mem_top_track_8.DFFR_1_.Q net117 vdd vdd vss vss gf180mcu_fd_sc_mcu7t5v0__dlyb_1
Xhold86 mem_top_track_0.DFFR_5_.Q net183 vdd vdd vss vss gf180mcu_fd_sc_mcu7t5v0__dlyb_1
Xhold64 mem_top_track_16.DFFR_0_.D net161 vdd vdd vss vss gf180mcu_fd_sc_mcu7t5v0__dlyb_1
Xhold53 mem_left_track_21.DFFR_1_.Q net150 vdd vdd vss vss gf180mcu_fd_sc_mcu7t5v0__dlyb_1
Xhold42 mem_left_track_1.DFFR_5_.Q net139 vdd vdd vss vss gf180mcu_fd_sc_mcu7t5v0__dlyb_1
Xhold97 mem_bottom_track_33.DFFR_0_.Q net194 vdd vdd vss vss gf180mcu_fd_sc_mcu7t5v0__dlyb_1
Xhold31 mem_bottom_track_17.DFFR_5_.Q net128 vdd vdd vss vss gf180mcu_fd_sc_mcu7t5v0__dlyb_1
XPHY_EDGE_ROW_7_Left_50 vdd vss gf180mcu_fd_sc_mcu7t5v0__endcap
XFILLER_0_38_287 vdd vdd vss vss gf180mcu_fd_sc_mcu7t5v0__fill_2
XFILLER_0_6_18 vdd vdd vss vss gf180mcu_fd_sc_mcu7t5v0__fill_1
XFILLER_0_21_187 vdd vdd vss vss gf180mcu_fd_sc_mcu7t5v0__fillcap_4
XFILLER_0_21_176 vdd vdd vss vss gf180mcu_fd_sc_mcu7t5v0__fill_1
XFILLER_0_16_30 vdd vdd vss vss gf180mcu_fd_sc_mcu7t5v0__fill_2
XFILLER_0_8_115 vdd vdd vss vss gf180mcu_fd_sc_mcu7t5v0__fillcap_4
XPHY_EDGE_ROW_6_Right_6 vdd vss gf180mcu_fd_sc_mcu7t5v0__endcap
XANTENNA_input11_I chany_bottom_in[2] vdd vdd vss vss gf180mcu_fd_sc_mcu7t5v0__antenna
Xoutput65 net65 chany_top_out[1] vdd vdd vss vss gf180mcu_fd_sc_mcu7t5v0__clkbuf_4
XFILLER_0_9_2 vdd vdd vss vss gf180mcu_fd_sc_mcu7t5v0__fill_2
Xoutput54 net54 chany_bottom_out[6] vdd vdd vss vss gf180mcu_fd_sc_mcu7t5v0__buf_3
Xoutput43 net43 chany_bottom_out[11] vdd vdd vss vss gf180mcu_fd_sc_mcu7t5v0__buf_3
XPHY_EDGE_ROW_33_Left_76 vdd vss gf180mcu_fd_sc_mcu7t5v0__endcap
XANTENNA__178__I _110_ vdd vdd vss vss gf180mcu_fd_sc_mcu7t5v0__antenna
XFILLER_0_41_216 vdd vdd vss vss gf180mcu_fd_sc_mcu7t5v0__fill_1
XFILLER_0_41_205 vdd vdd vss vss gf180mcu_fd_sc_mcu7t5v0__fillcap_4
XANTENNA_input3_I chany_bottom_in[10] vdd vdd vss vss gf180mcu_fd_sc_mcu7t5v0__antenna
XFILLER_0_17_279 vdd vdd vss vss gf180mcu_fd_sc_mcu7t5v0__fill_1
XFILLER_0_32_227 vdd vdd vss vss gf180mcu_fd_sc_mcu7t5v0__fill_1
XFILLER_0_40_271 vdd vdd vss vss gf180mcu_fd_sc_mcu7t5v0__fillcap_4
XFILLER_0_7_72 vdd vdd vss vss gf180mcu_fd_sc_mcu7t5v0__fill_2
X_292_ net199 _048_ clknet_3_2__leaf_prog_clk mem_bottom_track_17.DFFR_3_.Q vdd vdd
+ vss vss gf180mcu_fd_sc_mcu7t5v0__dffrnq_1
XTAP_TAPCELL_ROW_23_196 vdd vss gf180mcu_fd_sc_mcu7t5v0__filltie
XFILLER_0_31_282 vdd vdd vss vss gf180mcu_fd_sc_mcu7t5v0__fillcap_8
X_413_ net2 net65 vdd vdd vss vss gf180mcu_fd_sc_mcu7t5v0__clkbuf_1
X_344_ net186 _100_ clknet_3_5__leaf_prog_clk mem_left_track_13.DFFR_1_.Q vdd vdd
+ vss vss gf180mcu_fd_sc_mcu7t5v0__dffrnq_1
X_275_ net149 _031_ clknet_3_4__leaf_prog_clk mem_top_track_24.DFFR_2_.Q vdd vdd vss
+ vss gf180mcu_fd_sc_mcu7t5v0__dffrnq_1
XPHY_EDGE_ROW_20_Left_63 vdd vss gf180mcu_fd_sc_mcu7t5v0__endcap
XTAP_TAPCELL_ROW_34_247 vdd vss gf180mcu_fd_sc_mcu7t5v0__filltie
XTAP_TAPCELL_ROW_42_280 vdd vss gf180mcu_fd_sc_mcu7t5v0__filltie
XFILLER_0_27_330 vdd vdd vss vss gf180mcu_fd_sc_mcu7t5v0__fill_1
XTAP_TAPCELL_ROW_2_101 vdd vss gf180mcu_fd_sc_mcu7t5v0__filltie
XTAP_TAPCELL_ROW_25_203 vdd vss gf180mcu_fd_sc_mcu7t5v0__filltie
Xsb_2__1__95 chanx_left_out[2] vdd vdd vss vss gf180mcu_fd_sc_mcu7t5v0__tiel
XFILLER_0_9_29 vdd vdd vss vss gf180mcu_fd_sc_mcu7t5v0__fill_1
Xsb_2__1__84 chanx_left_out[13] vdd vdd vss vss gf180mcu_fd_sc_mcu7t5v0__tiel
Xsb_2__1__73 chany_top_out[12] vdd vdd vss vss gf180mcu_fd_sc_mcu7t5v0__tiel
X_258_ net104 _014_ clknet_3_0__leaf_prog_clk mem_bottom_track_1.DFFR_1_.Q vdd vdd
+ vss vss gf180mcu_fd_sc_mcu7t5v0__dffrnq_1
X_189_ _110_ _117_ vdd vdd vss vss gf180mcu_fd_sc_mcu7t5v0__buf_4
X_327_ net163 _083_ clknet_3_7__leaf_prog_clk mem_left_track_7.DFFR_4_.Q vdd vdd vss
+ vss gf180mcu_fd_sc_mcu7t5v0__dffrnq_1
XFILLER_0_36_171 vdd vdd vss vss gf180mcu_fd_sc_mcu7t5v0__fillcap_4
XTAP_TAPCELL_ROW_0_91 vdd vss gf180mcu_fd_sc_mcu7t5v0__filltie
XFILLER_0_42_174 vdd vdd vss vss gf180mcu_fd_sc_mcu7t5v0__fill_1
XFILLER_0_21_64 vdd vdd vss vss gf180mcu_fd_sc_mcu7t5v0__fill_2
XFILLER_0_21_97 vdd vdd vss vss gf180mcu_fd_sc_mcu7t5v0__fillcap_8
XANTENNA__270__CLK clknet_3_1__leaf_prog_clk vdd vdd vss vss gf180mcu_fd_sc_mcu7t5v0__antenna
XFILLER_0_27_4 vdd vdd vss vss gf180mcu_fd_sc_mcu7t5v0__fill_1
XFILLER_0_30_100 vdd vdd vss vss gf180mcu_fd_sc_mcu7t5v0__fillcap_4
XFILLER_0_30_177 vdd vdd vss vss gf180mcu_fd_sc_mcu7t5v0__fillcap_8
Xhold76 mem_top_track_8.DFFR_0_.Q net173 vdd vdd vss vss gf180mcu_fd_sc_mcu7t5v0__dlyb_1
Xhold32 mem_left_track_15.DFFR_1_.Q net129 vdd vdd vss vss gf180mcu_fd_sc_mcu7t5v0__dlyb_1
Xhold21 mem_top_track_16.DFFR_5_.Q net118 vdd vdd vss vss gf180mcu_fd_sc_mcu7t5v0__dlyb_1
Xhold54 mem_left_track_1.DFFR_0_.Q net151 vdd vdd vss vss gf180mcu_fd_sc_mcu7t5v0__dlyb_1
Xhold43 mem_bottom_track_17.DFFR_0_.D net140 vdd vdd vss vss gf180mcu_fd_sc_mcu7t5v0__dlyb_1
Xhold98 mem_bottom_track_17.DFFR_3_.Q net195 vdd vdd vss vss gf180mcu_fd_sc_mcu7t5v0__dlyb_1
Xhold10 mem_bottom_track_33.DFFR_4_.Q net107 vdd vdd vss vss gf180mcu_fd_sc_mcu7t5v0__dlyb_1
Xhold87 mem_bottom_track_25.DFFR_4_.Q net184 vdd vdd vss vss gf180mcu_fd_sc_mcu7t5v0__dlyb_1
Xhold65 mem_left_track_7.DFFR_4_.Q net162 vdd vdd vss vss gf180mcu_fd_sc_mcu7t5v0__dlyb_1
XFILLER_0_8_149 vdd vdd vss vss gf180mcu_fd_sc_mcu7t5v0__fillcap_8
XFILLER_0_12_177 vdd vdd vss vss gf180mcu_fd_sc_mcu7t5v0__fill_2
XFILLER_0_32_2 vdd vdd vss vss gf180mcu_fd_sc_mcu7t5v0__fillcap_32
Xoutput55 net55 chany_bottom_out[7] vdd vdd vss vss gf180mcu_fd_sc_mcu7t5v0__buf_3
Xoutput66 net66 chany_top_out[2] vdd vdd vss vss gf180mcu_fd_sc_mcu7t5v0__buf_3
Xoutput44 net44 chany_bottom_out[13] vdd vdd vss vss gf180mcu_fd_sc_mcu7t5v0__buf_3
XFILLER_0_26_236 vdd vdd vss vss gf180mcu_fd_sc_mcu7t5v0__fill_1
XFILLER_0_26_247 vdd vdd vss vss gf180mcu_fd_sc_mcu7t5v0__fillcap_8
XFILLER_0_1_314 vdd vdd vss vss gf180mcu_fd_sc_mcu7t5v0__fill_1
XFILLER_0_34_280 vdd vdd vss vss gf180mcu_fd_sc_mcu7t5v0__fillcap_16
XFILLER_0_4_174 vdd vdd vss vss gf180mcu_fd_sc_mcu7t5v0__fill_1
XFILLER_0_17_258 vdd vdd vss vss gf180mcu_fd_sc_mcu7t5v0__fill_2
XFILLER_0_7_84 vdd vdd vss vss gf180mcu_fd_sc_mcu7t5v0__fill_2
XTAP_TAPCELL_ROW_23_197 vdd vss gf180mcu_fd_sc_mcu7t5v0__filltie
X_291_ net195 _047_ clknet_3_2__leaf_prog_clk mem_bottom_track_17.DFFR_4_.Q vdd vdd
+ vss vss gf180mcu_fd_sc_mcu7t5v0__dffrnq_1
XFILLER_0_31_272 vdd vdd vss vss gf180mcu_fd_sc_mcu7t5v0__fill_1
XANTENNA__189__I _110_ vdd vdd vss vss gf180mcu_fd_sc_mcu7t5v0__antenna
XTAP_TAPCELL_ROW_14_153 vdd vss gf180mcu_fd_sc_mcu7t5v0__filltie
XFILLER_0_13_294 vdd vdd vss vss gf180mcu_fd_sc_mcu7t5v0__fill_2
X_412_ net10 net66 vdd vdd vss vss gf180mcu_fd_sc_mcu7t5v0__clkbuf_1
X_274_ net172 _030_ clknet_3_4__leaf_prog_clk mem_top_track_24.DFFR_3_.Q vdd vdd vss
+ vss gf180mcu_fd_sc_mcu7t5v0__dffrnq_1
X_343_ net126 _099_ clknet_3_7__leaf_prog_clk mem_left_track_27.DFFR_0_.Q vdd vdd
+ vss vss gf180mcu_fd_sc_mcu7t5v0__dffrnq_1
XFILLER_0_11_209 vdd vdd vss vss gf180mcu_fd_sc_mcu7t5v0__fill_1
XTAP_TAPCELL_ROW_42_281 vdd vss gf180mcu_fd_sc_mcu7t5v0__filltie
XFILLER_0_6_258 vdd vdd vss vss gf180mcu_fd_sc_mcu7t5v0__fillcap_4
XFILLER_0_6_236 vdd vdd vss vss gf180mcu_fd_sc_mcu7t5v0__fillcap_8
XFILLER_0_6_247 vdd vdd vss vss gf180mcu_fd_sc_mcu7t5v0__fillcap_4
XFILLER_0_4_74 vdd vdd vss vss gf180mcu_fd_sc_mcu7t5v0__fillcap_8
XFILLER_0_4_41 vdd vdd vss vss gf180mcu_fd_sc_mcu7t5v0__fill_1
XTAP_TAPCELL_ROW_2_102 vdd vss gf180mcu_fd_sc_mcu7t5v0__filltie
XTAP_TAPCELL_ROW_25_204 vdd vss gf180mcu_fd_sc_mcu7t5v0__filltie
X_326_ net162 _082_ clknet_3_7__leaf_prog_clk mem_left_track_7.DFFR_5_.Q vdd vdd vss
+ vss gf180mcu_fd_sc_mcu7t5v0__dffrnq_1
XFILLER_0_3_206 vdd vdd vss vss gf180mcu_fd_sc_mcu7t5v0__fillcap_4
X_257_ net171 _013_ clknet_3_0__leaf_prog_clk mem_bottom_track_1.DFFR_2_.Q vdd vdd
+ vss vss gf180mcu_fd_sc_mcu7t5v0__dffrnq_1
X_188_ _116_ _059_ vdd vdd vss vss gf180mcu_fd_sc_mcu7t5v0__clkinv_2
Xsb_2__1__74 chany_top_out[8] vdd vdd vss vss gf180mcu_fd_sc_mcu7t5v0__tiel
Xsb_2__1__96 chanx_left_out[1] vdd vdd vss vss gf180mcu_fd_sc_mcu7t5v0__tiel
Xsb_2__1__85 chanx_left_out[12] vdd vdd vss vss gf180mcu_fd_sc_mcu7t5v0__tiel
XTAP_TAPCELL_ROW_0_92 vdd vss gf180mcu_fd_sc_mcu7t5v0__filltie
XFILLER_0_19_139 vdd vdd vss vss gf180mcu_fd_sc_mcu7t5v0__fill_1
XFILLER_0_42_142 vdd vdd vss vss gf180mcu_fd_sc_mcu7t5v0__fill_2
XANTENNA_input34_I chany_top_in[8] vdd vdd vss vss gf180mcu_fd_sc_mcu7t5v0__antenna
XFILLER_0_33_142 vdd vdd vss vss gf180mcu_fd_sc_mcu7t5v0__fillcap_64
X_309_ net158 _065_ clknet_3_3__leaf_prog_clk mem_left_track_1.DFFR_4_.Q vdd vdd vss
+ vss gf180mcu_fd_sc_mcu7t5v0__dffrnq_1
XFILLER_0_15_142 vdd vdd vss vss gf180mcu_fd_sc_mcu7t5v0__fill_1
Xhold22 mem_bottom_track_17.DFFR_1_.Q net119 vdd vdd vss vss gf180mcu_fd_sc_mcu7t5v0__dlyb_1
Xhold11 mem_left_track_5.DFFR_5_.Q net108 vdd vdd vss vss gf180mcu_fd_sc_mcu7t5v0__dlyb_1
Xhold88 mem_top_track_16.DFFR_0_.Q net185 vdd vdd vss vss gf180mcu_fd_sc_mcu7t5v0__dlyb_1
Xhold44 mem_top_track_8.DFFR_2_.Q net141 vdd vdd vss vss gf180mcu_fd_sc_mcu7t5v0__dlyb_1
Xhold55 mem_top_track_32.DFFR_3_.Q net152 vdd vdd vss vss gf180mcu_fd_sc_mcu7t5v0__dlyb_1
Xhold77 mem_left_track_3.DFFR_0_.Q net174 vdd vdd vss vss gf180mcu_fd_sc_mcu7t5v0__dlyb_1
Xhold99 mem_left_track_3.DFFR_4_.Q net196 vdd vdd vss vss gf180mcu_fd_sc_mcu7t5v0__dlyb_1
Xhold33 mem_left_track_5.DFFR_3_.Q net130 vdd vdd vss vss gf180mcu_fd_sc_mcu7t5v0__dlyb_1
Xhold66 mem_left_track_7.DFFR_3_.Q net163 vdd vdd vss vss gf180mcu_fd_sc_mcu7t5v0__dlyb_1
XFILLER_0_38_289 vdd vdd vss vss gf180mcu_fd_sc_mcu7t5v0__fill_1
XFILLER_0_16_32 vdd vdd vss vss gf180mcu_fd_sc_mcu7t5v0__fill_1
XFILLER_0_16_43 vdd vdd vss vss gf180mcu_fd_sc_mcu7t5v0__fill_2
XFILLER_0_12_101 vdd vdd vss vss gf180mcu_fd_sc_mcu7t5v0__fill_2
XFILLER_0_25_2 vdd vdd vss vss gf180mcu_fd_sc_mcu7t5v0__fillcap_8
XFILLER_0_7_150 vdd vdd vss vss gf180mcu_fd_sc_mcu7t5v0__fill_1
Xoutput56 net56 chany_bottom_out[9] vdd vdd vss vss gf180mcu_fd_sc_mcu7t5v0__buf_3
Xoutput45 net45 chany_bottom_out[14] vdd vdd vss vss gf180mcu_fd_sc_mcu7t5v0__buf_3
XFILLER_0_9_4 vdd vdd vss vss gf180mcu_fd_sc_mcu7t5v0__fill_1
Xoutput67 net67 chany_top_out[3] vdd vdd vss vss gf180mcu_fd_sc_mcu7t5v0__buf_3
XANTENNA__260__CLK clknet_3_1__leaf_prog_clk vdd vdd vss vss gf180mcu_fd_sc_mcu7t5v0__antenna
XFILLER_0_27_64 vdd vdd vss vss gf180mcu_fd_sc_mcu7t5v0__fillcap_4
XFILLER_0_4_142 vdd vdd vss vss gf180mcu_fd_sc_mcu7t5v0__fillcap_32
X_290_ net169 _046_ clknet_3_2__leaf_prog_clk mem_bottom_track_17.DFFR_5_.Q vdd vdd
+ vss vss gf180mcu_fd_sc_mcu7t5v0__dffrnq_1
XTAP_TAPCELL_ROW_8_130 vdd vss gf180mcu_fd_sc_mcu7t5v0__filltie
XTAP_TAPCELL_ROW_14_154 vdd vss gf180mcu_fd_sc_mcu7t5v0__filltie
XTAP_TAPCELL_ROW_37_257 vdd vss gf180mcu_fd_sc_mcu7t5v0__filltie
XFILLER_0_9_212 vdd vdd vss vss gf180mcu_fd_sc_mcu7t5v0__fillcap_8
XFILLER_0_9_245 vdd vdd vss vss gf180mcu_fd_sc_mcu7t5v0__fill_1
XFILLER_0_9_278 vdd vdd vss vss gf180mcu_fd_sc_mcu7t5v0__fill_2
X_342_ net99 _098_ clknet_3_5__leaf_prog_clk mem_left_track_27.DFFR_1_.Q vdd vdd vss
+ vss gf180mcu_fd_sc_mcu7t5v0__dffrnq_1
X_411_ net11 net67 vdd vdd vss vss gf180mcu_fd_sc_mcu7t5v0__clkbuf_1
X_273_ net134 _029_ clknet_3_1__leaf_prog_clk mem_top_track_24.DFFR_4_.Q vdd vdd vss
+ vss gf180mcu_fd_sc_mcu7t5v0__dffrnq_1
XTAP_TAPCELL_ROW_42_282 vdd vss gf180mcu_fd_sc_mcu7t5v0__filltie
XFILLER_0_10_210 vdd vdd vss vss gf180mcu_fd_sc_mcu7t5v0__fill_1
XFILLER_0_10_243 vdd vdd vss vss gf180mcu_fd_sc_mcu7t5v0__fill_2
XTAP_TAPCELL_ROW_2_103 vdd vss gf180mcu_fd_sc_mcu7t5v0__filltie
XFILLER_0_10_298 vdd vdd vss vss gf180mcu_fd_sc_mcu7t5v0__fill_2
XTAP_TAPCELL_ROW_25_205 vdd vss gf180mcu_fd_sc_mcu7t5v0__filltie
XFILLER_0_28_107 vdd vdd vss vss gf180mcu_fd_sc_mcu7t5v0__fill_2
X_325_ net106 _081_ clknet_3_7__leaf_prog_clk mem_left_track_5.DFFR_0_.Q vdd vdd vss
+ vss gf180mcu_fd_sc_mcu7t5v0__dffrnq_1
Xsb_2__1__75 chany_top_out[4] vdd vdd vss vss gf180mcu_fd_sc_mcu7t5v0__tiel
Xsb_2__1__97 chanx_left_out[0] vdd vdd vss vss gf180mcu_fd_sc_mcu7t5v0__tiel
XFILLER_0_10_34 vdd vdd vss vss gf180mcu_fd_sc_mcu7t5v0__fill_1
X_256_ net121 _012_ clknet_3_1__leaf_prog_clk mem_bottom_track_1.DFFR_3_.Q vdd vdd
+ vss vss gf180mcu_fd_sc_mcu7t5v0__dffrnq_1
X_187_ _116_ _058_ vdd vdd vss vss gf180mcu_fd_sc_mcu7t5v0__clkinv_2
Xsb_2__1__86 chanx_left_out[11] vdd vdd vss vss gf180mcu_fd_sc_mcu7t5v0__tiel
XTAP_TAPCELL_ROW_0_93 vdd vss gf180mcu_fd_sc_mcu7t5v0__filltie
XFILLER_0_15_324 vdd vdd vss vss gf180mcu_fd_sc_mcu7t5v0__fillcap_4
XFILLER_0_2_251 vdd vdd vss vss gf180mcu_fd_sc_mcu7t5v0__fill_2
XFILLER_0_30_327 vdd vdd vss vss gf180mcu_fd_sc_mcu7t5v0__fillcap_4
XANTENNA_input27_I chany_top_in[19] vdd vdd vss vss gf180mcu_fd_sc_mcu7t5v0__antenna
XFILLER_0_33_121 vdd vdd vss vss gf180mcu_fd_sc_mcu7t5v0__fill_2
X_239_ _121_ _105_ vdd vdd vss vss gf180mcu_fd_sc_mcu7t5v0__clkinv_2
X_308_ net120 _064_ clknet_3_6__leaf_prog_clk mem_left_track_1.DFFR_5_.Q vdd vdd vss
+ vss gf180mcu_fd_sc_mcu7t5v0__dffrnq_1
XFILLER_0_30_113 vdd vdd vss vss gf180mcu_fd_sc_mcu7t5v0__fillcap_4
Xhold45 mem_bottom_track_1.DFFR_7_.Q net142 vdd vdd vss vss gf180mcu_fd_sc_mcu7t5v0__dlyb_1
Xhold23 mem_left_track_1.DFFR_4_.Q net120 vdd vdd vss vss gf180mcu_fd_sc_mcu7t5v0__dlyb_1
Xhold56 mem_left_track_1.DFFR_2_.Q net153 vdd vdd vss vss gf180mcu_fd_sc_mcu7t5v0__dlyb_1
Xhold12 mem_bottom_track_17.DFFR_0_.Q net109 vdd vdd vss vss gf180mcu_fd_sc_mcu7t5v0__dlyb_1
Xhold34 mem_bottom_track_25.DFFR_1_.Q net131 vdd vdd vss vss gf180mcu_fd_sc_mcu7t5v0__dlyb_1
Xhold89 mem_left_track_13.DFFR_0_.Q net186 vdd vdd vss vss gf180mcu_fd_sc_mcu7t5v0__dlyb_1
Xhold67 mem_top_track_16.DFFR_4_.Q net164 vdd vdd vss vss gf180mcu_fd_sc_mcu7t5v0__dlyb_1
Xhold78 mem_bottom_track_9.DFFR_4_.Q net175 vdd vdd vss vss gf180mcu_fd_sc_mcu7t5v0__dlyb_1
XFILLER_0_38_279 vdd vdd vss vss gf180mcu_fd_sc_mcu7t5v0__fillcap_8
XFILLER_0_8_107 vdd vdd vss vss gf180mcu_fd_sc_mcu7t5v0__fillcap_8
XFILLER_0_18_2 vdd vdd vss vss gf180mcu_fd_sc_mcu7t5v0__fill_2
XANTENNA_clkbuf_3_4__f_prog_clk_I clknet_0_prog_clk vdd vdd vss vss gf180mcu_fd_sc_mcu7t5v0__antenna
Xoutput46 net46 chany_bottom_out[15] vdd vdd vss vss gf180mcu_fd_sc_mcu7t5v0__buf_3
Xoutput57 net57 chany_top_out[10] vdd vdd vss vss gf180mcu_fd_sc_mcu7t5v0__buf_3
Xoutput68 net68 chany_top_out[5] vdd vdd vss vss gf180mcu_fd_sc_mcu7t5v0__buf_3
XPHY_EDGE_ROW_19_Right_19 vdd vss gf180mcu_fd_sc_mcu7t5v0__endcap
XPHY_EDGE_ROW_28_Right_28 vdd vss gf180mcu_fd_sc_mcu7t5v0__endcap
XFILLER_0_27_21 vdd vdd vss vss gf180mcu_fd_sc_mcu7t5v0__fillcap_8
XFILLER_0_27_76 vdd vdd vss vss gf180mcu_fd_sc_mcu7t5v0__fill_1
XPHY_EDGE_ROW_37_Right_37 vdd vss gf180mcu_fd_sc_mcu7t5v0__endcap
XFILLER_0_40_263 vdd vdd vss vss gf180mcu_fd_sc_mcu7t5v0__fillcap_8
XFILLER_0_7_53 vdd vdd vss vss gf180mcu_fd_sc_mcu7t5v0__fillcap_16
XFILLER_0_7_2 vdd vdd vss vss gf180mcu_fd_sc_mcu7t5v0__fillcap_8
XTAP_TAPCELL_ROW_14_155 vdd vss gf180mcu_fd_sc_mcu7t5v0__filltie
XFILLER_0_39_330 vdd vdd vss vss gf180mcu_fd_sc_mcu7t5v0__fill_1
XANTENNA_input1_I ccff_head vdd vdd vss vss gf180mcu_fd_sc_mcu7t5v0__antenna
XTAP_TAPCELL_ROW_37_258 vdd vss gf180mcu_fd_sc_mcu7t5v0__filltie
XFILLER_0_13_296 vdd vdd vss vss gf180mcu_fd_sc_mcu7t5v0__fill_1
XANTENNA__250__CLK clknet_3_0__leaf_prog_clk vdd vdd vss vss gf180mcu_fd_sc_mcu7t5v0__antenna
X_410_ net12 net68 vdd vdd vss vss gf180mcu_fd_sc_mcu7t5v0__clkbuf_1
X_272_ net160 _028_ clknet_3_1__leaf_prog_clk mem_top_track_24.DFFR_5_.Q vdd vdd vss
+ vss gf180mcu_fd_sc_mcu7t5v0__dffrnq_1
X_341_ net136 _097_ clknet_3_5__leaf_prog_clk mem_left_track_25.DFFR_0_.Q vdd vdd
+ vss vss gf180mcu_fd_sc_mcu7t5v0__dffrnq_1
XTAP_TAPCELL_ROW_42_283 vdd vss gf180mcu_fd_sc_mcu7t5v0__filltie
XFILLER_0_10_255 vdd vdd vss vss gf180mcu_fd_sc_mcu7t5v0__fill_2
XFILLER_0_4_98 vdd vdd vss vss gf180mcu_fd_sc_mcu7t5v0__fillcap_4
XANTENNA__273__CLK clknet_3_1__leaf_prog_clk vdd vdd vss vss gf180mcu_fd_sc_mcu7t5v0__antenna
XTAP_TAPCELL_ROW_25_206 vdd vss gf180mcu_fd_sc_mcu7t5v0__filltie
XFILLER_0_5_271 vdd vdd vss vss gf180mcu_fd_sc_mcu7t5v0__fillcap_8
Xsb_2__1__87 chanx_left_out[10] vdd vdd vss vss gf180mcu_fd_sc_mcu7t5v0__tiel
Xsb_2__1__76 chany_top_out[0] vdd vdd vss vss gf180mcu_fd_sc_mcu7t5v0__tiel
X_255_ net102 _011_ clknet_3_3__leaf_prog_clk mem_bottom_track_1.DFFR_4_.Q vdd vdd
+ vss vss gf180mcu_fd_sc_mcu7t5v0__dffrnq_1
X_324_ net155 _080_ clknet_3_7__leaf_prog_clk mem_left_track_5.DFFR_1_.Q vdd vdd vss
+ vss gf180mcu_fd_sc_mcu7t5v0__dffrnq_1
XPHY_EDGE_ROW_24_Left_67 vdd vss gf180mcu_fd_sc_mcu7t5v0__endcap
X_186_ _116_ _057_ vdd vdd vss vss gf180mcu_fd_sc_mcu7t5v0__clkinv_2
XTAP_TAPCELL_ROW_0_94 vdd vss gf180mcu_fd_sc_mcu7t5v0__filltie
XFILLER_0_19_88 vdd vdd vss vss gf180mcu_fd_sc_mcu7t5v0__fill_2
XFILLER_0_42_199 vdd vdd vss vss gf180mcu_fd_sc_mcu7t5v0__fillcap_4
X_238_ _121_ _104_ vdd vdd vss vss gf180mcu_fd_sc_mcu7t5v0__clkinv_2
XFILLER_0_24_111 vdd vdd vss vss gf180mcu_fd_sc_mcu7t5v0__fill_1
XFILLER_0_24_166 vdd vdd vss vss gf180mcu_fd_sc_mcu7t5v0__fill_2
XFILLER_0_24_177 vdd vdd vss vss gf180mcu_fd_sc_mcu7t5v0__fill_2
X_169_ _115_ _041_ vdd vdd vss vss gf180mcu_fd_sc_mcu7t5v0__clkinv_2