*SPEF "ieee 1481-1999"
*DESIGN "sb_0__1_"
*DATE "11:11:11 Fri 11 11, 1111"
*VENDOR "OpenRCX"
*PROGRAM "Parallel Extraction"
*VERSION "1.0"
*DESIGN_FLOW "NAME_SCOPE LOCAL" "PIN_CAP NONE"
*DIVIDER /
*DELIMITER :
*BUS_DELIMITER []
*T_UNIT 1 NS
*C_UNIT 1 PF
*R_UNIT 1 OHM
*L_UNIT 1 HENRY

*NAME_MAP
*1 bottom_left_grid_right_width_0_height_0_subtile_0__pin_inpad_0_
*2 bottom_left_grid_right_width_0_height_0_subtile_1__pin_inpad_0_
*3 bottom_left_grid_right_width_0_height_0_subtile_2__pin_inpad_0_
*4 bottom_left_grid_right_width_0_height_0_subtile_3__pin_inpad_0_
*5 bottom_right_grid_left_width_0_height_0_subtile_0__pin_O_3_
*6 bottom_right_grid_left_width_0_height_0_subtile_0__pin_O_7_
*7 ccff_head
*8 ccff_tail
*9 chanx_right_in[0]
*10 chanx_right_in[10]
*11 chanx_right_in[11]
*12 chanx_right_in[12]
*13 chanx_right_in[13]
*14 chanx_right_in[14]
*15 chanx_right_in[15]
*16 chanx_right_in[16]
*17 chanx_right_in[17]
*18 chanx_right_in[18]
*19 chanx_right_in[19]
*20 chanx_right_in[1]
*21 chanx_right_in[2]
*22 chanx_right_in[3]
*23 chanx_right_in[4]
*24 chanx_right_in[5]
*25 chanx_right_in[6]
*26 chanx_right_in[7]
*27 chanx_right_in[8]
*28 chanx_right_in[9]
*29 net97
*30 net87
*31 net86
*32 net85
*33 net84
*34 net83
*35 chanx_right_out[15]
*36 chanx_right_out[16]
*37 chanx_right_out[17]
*38 chanx_right_out[18]
*39 net82
*40 net96
*41 net95
*42 net94
*43 net93
*44 net92
*45 net91
*46 net90
*47 net89
*48 net88
*49 chany_bottom_in[0]
*50 chany_bottom_in[10]
*51 chany_bottom_in[11]
*52 chany_bottom_in[12]
*53 chany_bottom_in[13]
*54 chany_bottom_in[14]
*55 chany_bottom_in[15]
*56 chany_bottom_in[16]
*57 chany_bottom_in[17]
*58 chany_bottom_in[18]
*59 chany_bottom_in[19]
*60 chany_bottom_in[1]
*61 chany_bottom_in[2]
*62 chany_bottom_in[3]
*63 chany_bottom_in[4]
*64 chany_bottom_in[5]
*65 chany_bottom_in[6]
*66 chany_bottom_in[7]
*67 chany_bottom_in[8]
*68 chany_bottom_in[9]
*69 net81
*70 chany_bottom_out[10]
*71 chany_bottom_out[11]
*72 net78
*73 chany_bottom_out[13]
*74 chany_bottom_out[14]
*75 chany_bottom_out[15]
*76 net77
*77 chany_bottom_out[17]
*78 chany_bottom_out[18]
*79 chany_bottom_out[19]
*80 chany_bottom_out[1]
*81 chany_bottom_out[2]
*82 chany_bottom_out[3]
*83 net80
*84 chany_bottom_out[5]
*85 chany_bottom_out[6]
*86 chany_bottom_out[7]
*87 net79
*88 chany_bottom_out[9]
*89 chany_top_in[0]
*90 chany_top_in[10]
*91 chany_top_in[11]
*92 chany_top_in[12]
*93 chany_top_in[13]
*94 chany_top_in[14]
*95 chany_top_in[15]
*96 chany_top_in[16]
*97 chany_top_in[17]
*98 chany_top_in[18]
*99 chany_top_in[19]
*100 chany_top_in[1]
*101 chany_top_in[2]
*102 chany_top_in[3]
*103 chany_top_in[4]
*104 chany_top_in[5]
*105 chany_top_in[6]
*106 chany_top_in[7]
*107 chany_top_in[8]
*108 chany_top_in[9]
*109 net76
*110 chany_top_out[10]
*111 chany_top_out[11]
*112 net73
*113 chany_top_out[13]
*114 chany_top_out[14]
*115 chany_top_out[15]
*116 net72
*117 chany_top_out[17]
*118 chany_top_out[18]
*119 chany_top_out[19]
*120 chany_top_out[1]
*121 chany_top_out[2]
*122 chany_top_out[3]
*123 net75
*124 chany_top_out[5]
*125 chany_top_out[6]
*126 chany_top_out[7]
*127 net74
*128 chany_top_out[9]
*129 pReset
*130 prog_clk
*131 right_bottom_grid_top_width_0_height_0_subtile_0__pin_O_0_
*132 right_bottom_grid_top_width_0_height_0_subtile_0__pin_O_4_
*133 right_top_grid_bottom_width_0_height_0_subtile_0__pin_O_2_
*134 right_top_grid_bottom_width_0_height_0_subtile_0__pin_O_6_
*135 top_left_grid_right_width_0_height_0_subtile_0__pin_inpad_0_
*136 top_left_grid_right_width_0_height_0_subtile_1__pin_inpad_0_
*137 top_left_grid_right_width_0_height_0_subtile_2__pin_inpad_0_
*138 top_left_grid_right_width_0_height_0_subtile_3__pin_inpad_0_
*139 top_right_grid_left_width_0_height_0_subtile_0__pin_O_3_
*140 top_right_grid_left_width_0_height_0_subtile_0__pin_O_7_
*143 _000_
*144 _001_
*145 _002_
*146 _003_
*147 _004_
*148 _005_
*149 _006_
*150 _007_
*151 _008_
*152 _009_
*153 _010_
*154 _011_
*155 _012_
*156 _013_
*157 _014_
*158 _015_
*159 _016_
*160 _017_
*161 _018_
*162 _019_
*163 _020_
*164 _021_
*165 _022_
*166 _023_
*167 _024_
*168 _025_
*169 _026_
*170 _027_
*171 _028_
*172 _029_
*173 _030_
*174 _031_
*175 _032_
*176 _033_
*177 _034_
*178 _035_
*179 _036_
*180 _037_
*181 _038_
*182 _039_
*183 _040_
*184 _041_
*185 _042_
*186 _043_
*187 _044_
*188 _045_
*189 _046_
*190 _047_
*191 _048_
*192 _049_
*193 _050_
*194 _051_
*195 _052_
*196 _053_
*197 _054_
*198 _055_
*199 _056_
*200 _057_
*201 _058_
*202 _059_
*203 _060_
*204 _061_
*205 _062_
*206 _063_
*207 _064_
*208 _065_
*209 _066_
*210 _067_
*211 _068_
*212 _069_
*213 _070_
*214 _071_
*215 _072_
*216 _073_
*217 _074_
*218 _075_
*219 _076_
*220 _077_
*221 _078_
*222 _079_
*223 _080_
*224 _081_
*225 _082_
*226 _083_
*227 _084_
*228 _085_
*229 _086_
*230 _087_
*231 _088_
*232 _089_
*233 _090_
*234 _091_
*235 _092_
*236 _093_
*237 _094_
*238 _095_
*239 _096_
*240 _097_
*241 _098_
*242 _099_
*243 _100_
*244 _101_
*245 _102_
*246 _103_
*247 _104_
*248 _105_
*249 _106_
*250 _107_
*251 _108_
*252 _109_
*253 _110_
*254 _111_
*255 _112_
*256 _113_
*257 _114_
*258 _115_
*259 _116_
*260 _117_
*261 clknet_0_prog_clk
*262 clknet_3_0__leaf_prog_clk
*263 clknet_3_1__leaf_prog_clk
*264 clknet_3_2__leaf_prog_clk
*265 clknet_3_3__leaf_prog_clk
*266 clknet_3_4__leaf_prog_clk
*267 clknet_3_5__leaf_prog_clk
*268 clknet_3_6__leaf_prog_clk
*269 clknet_3_7__leaf_prog_clk
*270 mem_bottom_track_1\.DFFR_0_\.D
*271 mem_bottom_track_1\.DFFR_0_\.Q
*272 mem_bottom_track_1\.DFFR_1_\.Q
*273 mem_bottom_track_1\.DFFR_2_\.Q
*274 mem_bottom_track_1\.DFFR_3_\.Q
*275 mem_bottom_track_1\.DFFR_4_\.Q
*276 mem_bottom_track_1\.DFFR_5_\.Q
*277 mem_bottom_track_1\.DFFR_6_\.Q
*278 mem_bottom_track_1\.DFFR_7_\.Q
*279 mem_bottom_track_17\.DFFR_0_\.D
*280 mem_bottom_track_17\.DFFR_0_\.Q
*281 mem_bottom_track_17\.DFFR_1_\.Q
*282 mem_bottom_track_17\.DFFR_2_\.Q
*283 mem_bottom_track_17\.DFFR_3_\.Q
*284 mem_bottom_track_17\.DFFR_4_\.Q
*285 mem_bottom_track_17\.DFFR_5_\.Q
*286 mem_bottom_track_25\.DFFR_0_\.Q
*287 mem_bottom_track_25\.DFFR_1_\.Q
*288 mem_bottom_track_25\.DFFR_2_\.Q
*289 mem_bottom_track_25\.DFFR_3_\.Q
*290 mem_bottom_track_25\.DFFR_4_\.Q
*291 mem_bottom_track_25\.DFFR_5_\.Q
*292 mem_bottom_track_33\.DFFR_0_\.Q
*293 mem_bottom_track_33\.DFFR_1_\.Q
*294 mem_bottom_track_33\.DFFR_2_\.Q
*295 mem_bottom_track_33\.DFFR_3_\.Q
*296 mem_bottom_track_33\.DFFR_4_\.Q
*297 mem_bottom_track_9\.DFFR_0_\.Q
*298 mem_bottom_track_9\.DFFR_1_\.Q
*299 mem_bottom_track_9\.DFFR_2_\.Q
*300 mem_bottom_track_9\.DFFR_3_\.Q
*301 mem_bottom_track_9\.DFFR_4_\.Q
*302 mem_right_track_0\.DFFR_0_\.D
*303 mem_right_track_0\.DFFR_0_\.Q
*304 mem_right_track_0\.DFFR_1_\.Q
*305 mem_right_track_10\.DFFR_0_\.D
*306 mem_right_track_10\.DFFR_0_\.Q
*307 mem_right_track_10\.DFFR_1_\.Q
*308 mem_right_track_12\.DFFR_0_\.Q
*309 mem_right_track_12\.DFFR_1_\.Q
*310 mem_right_track_14\.DFFR_0_\.Q
*311 mem_right_track_14\.DFFR_1_\.Q
*312 mem_right_track_16\.DFFR_0_\.Q
*313 mem_right_track_16\.DFFR_1_\.Q
*314 mem_right_track_18\.DFFR_0_\.Q
*315 mem_right_track_18\.DFFR_1_\.Q
*316 mem_right_track_2\.DFFR_0_\.Q
*317 mem_right_track_2\.DFFR_1_\.Q
*318 mem_right_track_2\.DFFR_2_\.Q
*319 mem_right_track_2\.DFFR_3_\.Q
*320 mem_right_track_2\.DFFR_4_\.Q
*321 mem_right_track_2\.DFFR_5_\.Q
*322 mem_right_track_20\.DFFR_0_\.Q
*323 mem_right_track_20\.DFFR_1_\.Q
*324 mem_right_track_22\.DFFR_0_\.Q
*325 mem_right_track_22\.DFFR_1_\.Q
*326 mem_right_track_24\.DFFR_0_\.Q
*327 mem_right_track_24\.DFFR_1_\.Q
*328 mem_right_track_26\.DFFR_0_\.Q
*329 mem_right_track_26\.DFFR_1_\.Q
*330 mem_right_track_28\.DFFR_0_\.Q
*331 mem_right_track_4\.DFFR_0_\.Q
*332 mem_right_track_4\.DFFR_1_\.Q
*333 mem_right_track_4\.DFFR_2_\.Q
*334 mem_right_track_4\.DFFR_3_\.Q
*335 mem_right_track_4\.DFFR_4_\.Q
*336 mem_right_track_4\.DFFR_5_\.Q
*337 mem_right_track_6\.DFFR_0_\.Q
*338 mem_right_track_6\.DFFR_1_\.Q
*339 mem_right_track_6\.DFFR_2_\.Q
*340 mem_right_track_6\.DFFR_3_\.Q
*341 mem_right_track_6\.DFFR_4_\.Q
*342 mem_right_track_6\.DFFR_5_\.Q
*343 mem_right_track_8\.DFFR_0_\.Q
*344 mem_top_track_0\.DFFR_0_\.Q
*345 mem_top_track_0\.DFFR_1_\.Q
*346 mem_top_track_0\.DFFR_2_\.Q
*347 mem_top_track_0\.DFFR_3_\.Q
*348 mem_top_track_0\.DFFR_4_\.Q
*349 mem_top_track_0\.DFFR_5_\.Q
*350 mem_top_track_0\.DFFR_6_\.Q
*351 mem_top_track_0\.DFFR_7_\.Q
*352 mem_top_track_16\.DFFR_0_\.D
*353 mem_top_track_16\.DFFR_0_\.Q
*354 mem_top_track_16\.DFFR_1_\.Q
*355 mem_top_track_16\.DFFR_2_\.Q
*356 mem_top_track_16\.DFFR_3_\.Q
*357 mem_top_track_16\.DFFR_4_\.Q
*358 mem_top_track_16\.DFFR_5_\.Q
*359 mem_top_track_24\.DFFR_0_\.Q
*360 mem_top_track_24\.DFFR_1_\.Q
*361 mem_top_track_24\.DFFR_2_\.Q
*362 mem_top_track_24\.DFFR_3_\.Q
*363 mem_top_track_24\.DFFR_4_\.Q
*364 mem_top_track_24\.DFFR_5_\.Q
*365 mem_top_track_32\.DFFR_0_\.Q
*366 mem_top_track_32\.DFFR_1_\.Q
*367 mem_top_track_32\.DFFR_2_\.Q
*368 mem_top_track_32\.DFFR_3_\.Q
*369 mem_top_track_32\.DFFR_4_\.Q
*370 mem_top_track_8\.DFFR_0_\.Q
*371 mem_top_track_8\.DFFR_1_\.Q
*372 mem_top_track_8\.DFFR_2_\.Q
*373 mem_top_track_8\.DFFR_3_\.Q
*374 mem_top_track_8\.DFFR_4_\.Q
*375 net1
*376 net10
*377 net100
*378 net101
*379 net102
*380 net103
*381 net104
*382 net105
*383 net106
*384 net107
*385 net108
*386 net109
*387 net11
*388 net110
*389 net111
*390 net112
*391 net113
*392 net114
*393 net115
*394 net116
*395 net117
*396 net118
*397 net119
*398 net12
*399 net120
*400 net121
*401 net122
*402 net123
*403 net124
*404 net125
*405 net126
*406 net127
*407 net128
*408 net129
*409 net13
*410 net130
*411 net131
*412 net132
*413 net133
*414 net134
*415 net135
*416 net136
*417 net137
*418 net138
*419 net139
*420 net14
*421 net140
*422 net141
*423 net142
*424 net143
*425 net144
*426 net145
*427 net146
*428 net147
*429 net148
*430 net149
*431 net15
*432 net150
*433 net151
*434 net152
*435 net153
*436 net154
*437 net155
*438 net156
*439 net157
*440 net158
*441 net159
*442 net16
*443 net160
*444 net161
*445 net162
*446 net163
*447 net164
*448 net165
*449 net166
*450 net167
*451 net168
*452 net169
*453 net17
*454 net170
*455 net171
*456 net172
*457 net173
*458 net174
*459 net175
*460 net176
*461 net177
*462 net178
*463 net179
*464 net18
*465 net180
*466 net181
*467 net182
*468 net183
*469 net184
*470 net185
*471 net186
*472 net187
*473 net188
*474 net189
*475 net19
*476 net190
*477 net191
*478 net192
*479 net193
*480 net194
*481 net195
*482 net196
*483 net197
*484 net198
*485 net199
*486 net2
*487 net20
*488 net200
*489 net201
*490 net202
*491 net21
*492 net22
*493 net23
*494 net24
*495 net25
*496 net26
*497 net27
*498 net28
*499 net29
*500 net3
*501 net30
*502 net31
*503 net32
*504 net33
*505 net34
*506 net35
*507 net36
*508 net37
*509 net38
*510 net39
*511 net4
*512 net40
*513 net41
*514 net42
*515 net43
*516 net44
*517 net45
*518 net46
*519 net47
*520 net48
*521 net49
*522 net5
*523 net50
*524 net51
*525 net52
*526 net53
*527 net54
*528 net55
*529 net56
*530 net57
*531 net58
*532 net59
*533 net6
*534 net60
*535 net61
*536 net62
*537 net63
*538 net64
*539 net65
*540 net66
*541 net67
*542 net68
*543 net69
*544 net7
*545 net70
*546 net71
*547 net8
*548 net9
*549 net98
*550 net99
*551 ANTENNA__119__I
*552 ANTENNA__120__I
*553 ANTENNA__121__I
*554 ANTENNA__122__I
*555 ANTENNA__123__I
*556 ANTENNA__124__I
*557 ANTENNA__125__I
*558 ANTENNA__126__I
*559 ANTENNA__127__I
*560 ANTENNA__128__I
*561 ANTENNA__129__I
*562 ANTENNA__130__I
*563 ANTENNA__131__I
*564 ANTENNA__132__I
*565 ANTENNA__133__I
*566 ANTENNA__134__I
*567 ANTENNA__135__I
*568 ANTENNA__136__I
*569 ANTENNA__137__I
*570 ANTENNA__138__I
*571 ANTENNA__139__I
*572 ANTENNA__140__I
*573 ANTENNA__141__I
*574 ANTENNA__142__I
*575 ANTENNA__143__I
*576 ANTENNA__144__I
*577 ANTENNA__145__I
*578 ANTENNA__146__I
*579 ANTENNA__147__I
*580 ANTENNA__148__I
*581 ANTENNA__149__I
*582 ANTENNA__150__I
*583 ANTENNA__151__I
*584 ANTENNA__152__I
*585 ANTENNA__153__I
*586 ANTENNA__154__I
*587 ANTENNA__155__I
*588 ANTENNA__156__I
*589 ANTENNA__157__I
*590 ANTENNA__158__I
*591 ANTENNA__159__I
*592 ANTENNA__160__I
*593 ANTENNA__161__I
*594 ANTENNA__162__I
*595 ANTENNA__163__I
*596 ANTENNA__164__I
*597 ANTENNA__175__I
*598 ANTENNA__176__I
*599 ANTENNA__177__I
*600 ANTENNA__178__I
*601 ANTENNA__179__I
*602 ANTENNA__180__I
*603 ANTENNA__181__I
*604 ANTENNA__182__I
*605 ANTENNA__183__I
*606 ANTENNA__184__I
*607 ANTENNA__185__I
*608 ANTENNA__186__I
*609 ANTENNA__197__I
*610 ANTENNA__198__I
*611 ANTENNA__199__I
*612 ANTENNA__200__I
*613 ANTENNA__201__I
*614 ANTENNA__202__I
*615 ANTENNA__203__I
*616 ANTENNA__204__I
*617 ANTENNA__205__I
*618 ANTENNA__206__I
*619 ANTENNA__207__I
*620 ANTENNA__208__I
*621 ANTENNA__219__I
*622 ANTENNA__220__I
*623 ANTENNA__221__I
*624 ANTENNA__222__I
*625 ANTENNA__223__I
*626 ANTENNA__224__I
*627 ANTENNA__225__I
*628 ANTENNA__226__I
*629 ANTENNA__227__I
*630 ANTENNA__228__I
*631 ANTENNA__229__I
*632 ANTENNA__230__I
*633 ANTENNA__231__I
*634 ANTENNA__232__I
*635 ANTENNA__233__I
*636 ANTENNA__234__I
*637 ANTENNA__235__I
*638 ANTENNA__236__CLK
*639 ANTENNA__237__CLK
*640 ANTENNA__238__CLK
*641 ANTENNA__239__CLK
*642 ANTENNA__240__CLK
*643 ANTENNA__241__CLK
*644 ANTENNA__241__RN
*645 ANTENNA__242__CLK
*646 ANTENNA__243__CLK
*647 ANTENNA__243__RN
*648 ANTENNA__244__CLK
*649 ANTENNA__245__CLK
*650 ANTENNA__246__CLK
*651 ANTENNA__247__CLK
*652 ANTENNA__248__CLK
*653 ANTENNA__249__CLK
*654 ANTENNA__250__CLK
*655 ANTENNA__251__CLK
*656 ANTENNA__252__CLK
*657 ANTENNA__253__CLK
*658 ANTENNA__254__CLK
*659 ANTENNA__255__CLK
*660 ANTENNA__260__CLK
*661 ANTENNA__261__CLK
*662 ANTENNA__262__CLK
*663 ANTENNA__263__CLK
*664 ANTENNA__265__CLK
*665 ANTENNA__266__CLK
*666 ANTENNA__267__CLK
*667 ANTENNA__268__CLK
*668 ANTENNA__270__CLK
*669 ANTENNA__271__CLK
*670 ANTENNA__272__CLK
*671 ANTENNA__273__CLK
*672 ANTENNA__274__CLK
*673 ANTENNA__276__CLK
*674 ANTENNA__280__CLK
*675 ANTENNA__281__CLK
*676 ANTENNA__282__CLK
*677 ANTENNA__283__CLK
*678 ANTENNA__284__CLK
*679 ANTENNA__286__CLK
*680 ANTENNA__287__CLK
*681 ANTENNA__291__CLK
*682 ANTENNA__298__CLK
*683 ANTENNA__299__CLK
*684 ANTENNA__302__CLK
*685 ANTENNA__304__CLK
*686 ANTENNA__305__CLK
*687 ANTENNA__306__CLK
*688 ANTENNA__307__CLK
*689 ANTENNA__308__CLK
*690 ANTENNA__309__CLK
*691 ANTENNA__310__CLK
*692 ANTENNA__311__CLK
*693 ANTENNA__313__CLK
*694 ANTENNA__314__CLK
*695 ANTENNA__317__CLK
*696 ANTENNA__318__CLK
*697 ANTENNA__319__CLK
*698 ANTENNA__320__CLK
*699 ANTENNA__323__CLK
*700 ANTENNA__330__CLK
*701 ANTENNA__331__CLK
*702 ANTENNA__332__CLK
*703 ANTENNA__333__CLK
*704 ANTENNA__334__CLK
*705 ANTENNA__335__CLK
*706 ANTENNA__336__CLK
*707 ANTENNA__337__CLK
*708 ANTENNA__340__CLK
*709 ANTENNA__374__I
*710 ANTENNA__380__I
*711 ANTENNA__381__I
*712 ANTENNA__395__I
*713 ANTENNA_clkbuf_0_prog_clk_I
*714 ANTENNA_clkbuf_3_0__f_prog_clk_I
*715 ANTENNA_clkbuf_3_1__f_prog_clk_I
*716 ANTENNA_clkbuf_3_2__f_prog_clk_I
*717 ANTENNA_clkbuf_3_3__f_prog_clk_I
*718 ANTENNA_clkbuf_3_4__f_prog_clk_I
*719 ANTENNA_clkbuf_3_5__f_prog_clk_I
*720 ANTENNA_clkbuf_3_6__f_prog_clk_I
*721 ANTENNA_clkbuf_3_7__f_prog_clk_I
*722 ANTENNA_input10_I
*723 ANTENNA_input11_I
*724 ANTENNA_input12_I
*725 ANTENNA_input13_I
*726 ANTENNA_input14_I
*727 ANTENNA_input15_I
*728 ANTENNA_input16_I
*729 ANTENNA_input17_I
*730 ANTENNA_input18_I
*731 ANTENNA_input19_I
*732 ANTENNA_input1_I
*733 ANTENNA_input20_I
*734 ANTENNA_input21_I
*735 ANTENNA_input22_I
*736 ANTENNA_input23_I
*737 ANTENNA_input24_I
*738 ANTENNA_input25_I
*739 ANTENNA_input26_I
*740 ANTENNA_input27_I
*741 ANTENNA_input28_I
*742 ANTENNA_input29_I
*743 ANTENNA_input2_I
*744 ANTENNA_input30_I
*745 ANTENNA_input31_I
*746 ANTENNA_input32_I
*747 ANTENNA_input33_I
*748 ANTENNA_input34_I
*749 ANTENNA_input35_I
*750 ANTENNA_input36_I
*751 ANTENNA_input3_I
*752 ANTENNA_input4_I
*753 ANTENNA_input5_I
*754 ANTENNA_input6_I
*755 ANTENNA_input7_I
*756 ANTENNA_input8_I
*757 ANTENNA_input9_I
*758 ANTENNA_output42_I
*759 ANTENNA_output44_I
*760 ANTENNA_output47_I
*761 ANTENNA_output50_I
*762 ANTENNA_output52_I
*763 ANTENNA_output62_I
*764 ANTENNA_output64_I
*765 ANTENNA_output70_I
*766 FILLER_0_0_101
*767 FILLER_0_0_110
*768 FILLER_0_0_114
*769 FILLER_0_0_116
*770 FILLER_0_0_135
*771 FILLER_0_0_138
*772 FILLER_0_0_140
*773 FILLER_0_0_143
*774 FILLER_0_0_163
*775 FILLER_0_0_182
*776 FILLER_0_0_200
*777 FILLER_0_0_210
*778 FILLER_0_0_214
*779 FILLER_0_0_225
*780 FILLER_0_0_227
*781 FILLER_0_0_246
*782 FILLER_0_0_25
*783 FILLER_0_0_27
*784 FILLER_0_0_274
*785 FILLER_0_0_276
*786 FILLER_0_0_30
*787 FILLER_0_0_36
*788 FILLER_0_0_40
*789 FILLER_0_0_42
*790 FILLER_0_0_67
*791 FILLER_0_0_70
*792 FILLER_0_0_8
*793 FILLER_0_0_88
*794 FILLER_0_0_92
*795 FILLER_0_0_94
*796 FILLER_0_10_101
*797 FILLER_0_10_157
*798 FILLER_0_10_161
*799 FILLER_0_10_173
*800 FILLER_0_10_2
*801 FILLER_0_10_247
*802 FILLER_0_10_251
*803 FILLER_0_10_255
*804 FILLER_0_10_26
*805 FILLER_0_10_272
*806 FILLER_0_10_276
*807 FILLER_0_10_30
*808 FILLER_0_10_32
*809 FILLER_0_10_51
*810 FILLER_0_10_55
*811 FILLER_0_11_110
*812 FILLER_0_11_114
*813 FILLER_0_11_118
*814 FILLER_0_11_138
*815 FILLER_0_11_182
*816 FILLER_0_11_190
*817 FILLER_0_11_207
*818 FILLER_0_11_209
*819 FILLER_0_11_246
*820 FILLER_0_11_250
*821 FILLER_0_11_254
*822 FILLER_0_11_256
*823 FILLER_0_11_273
*824 FILLER_0_11_42
*825 FILLER_0_11_44
*826 FILLER_0_11_61
*827 FILLER_0_11_65
*828 FILLER_0_11_67
*829 FILLER_0_12_101
*830 FILLER_0_12_12
*831 FILLER_0_12_123
*832 FILLER_0_12_127
*833 FILLER_0_12_131
*834 FILLER_0_12_150
*835 FILLER_0_12_152
*836 FILLER_0_12_155
*837 FILLER_0_12_16
*838 FILLER_0_12_177
*839 FILLER_0_12_18
*840 FILLER_0_12_181
*841 FILLER_0_12_263
*842 FILLER_0_12_271
*843 FILLER_0_12_275
*844 FILLER_0_12_37
*845 FILLER_0_12_48
*846 FILLER_0_12_52
*847 FILLER_0_12_56
*848 FILLER_0_12_58
*849 FILLER_0_12_75
*850 FILLER_0_12_79
*851 FILLER_0_12_8
*852 FILLER_0_12_96
*853 FILLER_0_12_98
*854 FILLER_0_13_100
*855 FILLER_0_13_104
*856 FILLER_0_13_139
*857 FILLER_0_13_154
*858 FILLER_0_13_193
*859 FILLER_0_13_197
*860 FILLER_0_13_201
*861 FILLER_0_13_204
*862 FILLER_0_13_272
*863 FILLER_0_13_276
*864 FILLER_0_13_78
*865 FILLER_0_13_96
*866 FILLER_0_14_107
*867 FILLER_0_14_111
*868 FILLER_0_14_115
*869 FILLER_0_14_177
*870 FILLER_0_14_2
*871 FILLER_0_14_218
*872 FILLER_0_14_222
*873 FILLER_0_14_226
*874 FILLER_0_14_243
*875 FILLER_0_14_247
*876 FILLER_0_14_251
*877 FILLER_0_14_253
*878 FILLER_0_14_26
*879 FILLER_0_14_272
*880 FILLER_0_14_276
*881 FILLER_0_14_28
*882 FILLER_0_14_31
*883 FILLER_0_15_137
*884 FILLER_0_15_139
*885 FILLER_0_15_142
*886 FILLER_0_15_186
*887 FILLER_0_15_200
*888 FILLER_0_15_218
*889 FILLER_0_15_222
*890 FILLER_0_15_36
*891 FILLER_0_15_38
*892 FILLER_0_15_61
*893 FILLER_0_15_63
*894 FILLER_0_15_66
*895 FILLER_0_15_72
*896 FILLER_0_15_90
*897 FILLER_0_15_92
*898 FILLER_0_16_101
*899 FILLER_0_16_107
*900 FILLER_0_16_123
*901 FILLER_0_16_125
*902 FILLER_0_16_172
*903 FILLER_0_16_174
*904 FILLER_0_16_2
*905 FILLER_0_16_247
*906 FILLER_0_16_251
*907 FILLER_0_16_253
*908 FILLER_0_16_26
*909 FILLER_0_16_272
*910 FILLER_0_16_276
*911 FILLER_0_16_28
*912 FILLER_0_16_31
*913 FILLER_0_16_47
*914 FILLER_0_17_122
*915 FILLER_0_17_135
*916 FILLER_0_17_137
*917 FILLER_0_17_246
*918 FILLER_0_17_250
*919 FILLER_0_17_254
*920 FILLER_0_18_101
*921 FILLER_0_18_107
*922 FILLER_0_18_127
*923 FILLER_0_18_131
*924 FILLER_0_18_135
*925 FILLER_0_18_170
*926 FILLER_0_18_174
*927 FILLER_0_18_189
*928 FILLER_0_18_2
*929 FILLER_0_18_230
*930 FILLER_0_18_234
*931 FILLER_0_18_247
*932 FILLER_0_18_251
*933 FILLER_0_18_255
*934 FILLER_0_18_26
*935 FILLER_0_18_272
*936 FILLER_0_18_276
*937 FILLER_0_18_30
*938 FILLER_0_18_32
*939 FILLER_0_18_37
*940 FILLER_0_18_51
*941 FILLER_0_18_53
*942 FILLER_0_18_90
*943 FILLER_0_18_94
*944 FILLER_0_19_148
*945 FILLER_0_19_16
*946 FILLER_0_19_18
*947 FILLER_0_19_186
*948 FILLER_0_19_2
*949 FILLER_0_19_212
*950 FILLER_0_19_220
*951 FILLER_0_19_274
*952 FILLER_0_19_276
*953 FILLER_0_19_63
*954 FILLER_0_19_67
*955 FILLER_0_1_142
*956 FILLER_0_1_144
*957 FILLER_0_1_147
*958 FILLER_0_1_187
*959 FILLER_0_1_189
*960 FILLER_0_1_206
*961 FILLER_0_1_218
*962 FILLER_0_1_225
*963 FILLER_0_1_42
*964 FILLER_0_1_44
*965 FILLER_0_1_61
*966 FILLER_0_1_65
*967 FILLER_0_1_67
*968 FILLER_0_1_72
*969 FILLER_0_1_74
*970 FILLER_0_1_91
*971 FILLER_0_1_93
*972 FILLER_0_1_96
*973 FILLER_0_20_101
*974 FILLER_0_20_113
*975 FILLER_0_20_151
*976 FILLER_0_20_167
*977 FILLER_0_20_2
*978 FILLER_0_20_247
*979 FILLER_0_20_251
*980 FILLER_0_20_255
*981 FILLER_0_20_26
*982 FILLER_0_20_272
*983 FILLER_0_20_276
*984 FILLER_0_20_30
*985 FILLER_0_20_34
*986 FILLER_0_20_71
*987 FILLER_0_20_73
*988 FILLER_0_20_96
*989 FILLER_0_20_98
*990 FILLER_0_21_131
*991 FILLER_0_21_133
*992 FILLER_0_21_142
*993 FILLER_0_21_146
*994 FILLER_0_21_150
*995 FILLER_0_21_167
*996 FILLER_0_21_171
*997 FILLER_0_21_173
*998 FILLER_0_21_192
*999 FILLER_0_21_212
*1000 FILLER_0_21_250
*1001 FILLER_0_21_258
*1002 FILLER_0_21_275
*1003 FILLER_0_21_88
*1004 FILLER_0_21_92
*1005 FILLER_0_21_94
*1006 FILLER_0_22_104
*1007 FILLER_0_22_113
*1008 FILLER_0_22_117
*1009 FILLER_0_22_156
*1010 FILLER_0_22_160
*1011 FILLER_0_22_168
*1012 FILLER_0_22_177
*1013 FILLER_0_22_181
*1014 FILLER_0_22_2
*1015 FILLER_0_22_228
*1016 FILLER_0_22_230
*1017 FILLER_0_22_241
*1018 FILLER_0_22_26
*1019 FILLER_0_22_263
*1020 FILLER_0_22_267
*1021 FILLER_0_22_271
*1022 FILLER_0_22_275
*1023 FILLER_0_22_30
*1024 FILLER_0_22_34
*1025 FILLER_0_22_37
*1026 FILLER_0_22_41
*1027 FILLER_0_22_47
*1028 FILLER_0_23_135
*1029 FILLER_0_23_139
*1030 FILLER_0_23_142
*1031 FILLER_0_23_144
*1032 FILLER_0_23_185
*1033 FILLER_0_23_189
*1034 FILLER_0_23_193
*1035 FILLER_0_23_2
*1036 FILLER_0_23_246
*1037 FILLER_0_23_254
*1038 FILLER_0_23_27
*1039 FILLER_0_23_31
*1040 FILLER_0_23_35
*1041 FILLER_0_23_4
*1042 FILLER_0_23_78
*1043 FILLER_0_24_107
*1044 FILLER_0_24_127
*1045 FILLER_0_24_129
*1046 FILLER_0_24_164
*1047 FILLER_0_24_168
*1048 FILLER_0_24_2
*1049 FILLER_0_24_247
*1050 FILLER_0_24_255
*1051 FILLER_0_24_26
*1052 FILLER_0_24_272
*1053 FILLER_0_24_276
*1054 FILLER_0_24_30
*1055 FILLER_0_24_32
*1056 FILLER_0_24_37
*1057 FILLER_0_25_139
*1058 FILLER_0_25_18
*1059 FILLER_0_25_22
*1060 FILLER_0_25_24
*1061 FILLER_0_25_262
*1062 FILLER_0_25_67
*1063 FILLER_0_25_69
*1064 FILLER_0_25_78
*1065 FILLER_0_26_2
*1066 FILLER_0_26_241
*1067 FILLER_0_26_247
*1068 FILLER_0_26_255
*1069 FILLER_0_26_26
*1070 FILLER_0_26_276
*1071 FILLER_0_26_30
*1072 FILLER_0_26_32
*1073 FILLER_0_26_37
*1074 FILLER_0_26_39
*1075 FILLER_0_26_62
*1076 FILLER_0_26_64
*1077 FILLER_0_26_67
*1078 FILLER_0_27_135
*1079 FILLER_0_27_137
*1080 FILLER_0_27_154
*1081 FILLER_0_27_16
*1082 FILLER_0_27_161
*1083 FILLER_0_27_163
*1084 FILLER_0_27_18
*1085 FILLER_0_27_2
*1086 FILLER_0_27_212
*1087 FILLER_0_27_216
*1088 FILLER_0_27_220
*1089 FILLER_0_27_63
*1090 FILLER_0_27_82
*1091 FILLER_0_27_86
*1092 FILLER_0_27_90
*1093 FILLER_0_28_104
*1094 FILLER_0_28_107
*1095 FILLER_0_28_122
*1096 FILLER_0_28_126
*1097 FILLER_0_28_150
*1098 FILLER_0_28_158
*1099 FILLER_0_28_177
*1100 FILLER_0_28_184
*1101 FILLER_0_28_188
*1102 FILLER_0_28_192
*1103 FILLER_0_28_209
*1104 FILLER_0_28_244
*1105 FILLER_0_28_247
*1106 FILLER_0_28_255
*1107 FILLER_0_28_26
*1108 FILLER_0_28_272
*1109 FILLER_0_28_28
*1110 FILLER_0_28_37
*1111 FILLER_0_28_51
*1112 FILLER_0_28_59
*1113 FILLER_0_29_101
*1114 FILLER_0_29_103
*1115 FILLER_0_29_148
*1116 FILLER_0_29_150
*1117 FILLER_0_29_2
*1118 FILLER_0_29_201
*1119 FILLER_0_29_205
*1120 FILLER_0_29_209
*1121 FILLER_0_29_212
*1122 FILLER_0_29_216
*1123 FILLER_0_29_220
*1124 FILLER_0_29_237
*1125 FILLER_0_29_27
*1126 FILLER_0_29_31
*1127 FILLER_0_29_35
*1128 FILLER_0_29_4
*1129 FILLER_0_29_72
*1130 FILLER_0_29_74
*1131 FILLER_0_29_97
*1132 FILLER_0_2_167
*1133 FILLER_0_2_177
*1134 FILLER_0_2_181
*1135 FILLER_0_2_2
*1136 FILLER_0_2_202
*1137 FILLER_0_2_206
*1138 FILLER_0_2_21
*1139 FILLER_0_2_236
*1140 FILLER_0_2_244
*1141 FILLER_0_2_247
*1142 FILLER_0_2_25
*1143 FILLER_0_2_251
*1144 FILLER_0_2_253
*1145 FILLER_0_2_272
*1146 FILLER_0_2_276
*1147 FILLER_0_2_4
*1148 FILLER_0_2_47
*1149 FILLER_0_30_104
*1150 FILLER_0_30_107
*1151 FILLER_0_30_125
*1152 FILLER_0_30_129
*1153 FILLER_0_30_171
*1154 FILLER_0_30_183
*1155 FILLER_0_30_185
*1156 FILLER_0_30_2
*1157 FILLER_0_30_236
*1158 FILLER_0_30_244
*1159 FILLER_0_30_247
*1160 FILLER_0_30_252
*1161 FILLER_0_30_26
*1162 FILLER_0_30_260
*1163 FILLER_0_30_30
*1164 FILLER_0_30_34
*1165 FILLER_0_30_57
*1166 FILLER_0_30_61
*1167 FILLER_0_30_63
*1168 FILLER_0_31_142
*1169 FILLER_0_31_150
*1170 FILLER_0_31_18
*1171 FILLER_0_31_212
*1172 FILLER_0_31_216
*1173 FILLER_0_31_220
*1174 FILLER_0_31_26
*1175 FILLER_0_31_61
*1176 FILLER_0_31_63
*1177 FILLER_0_32_187
*1178 FILLER_0_32_2
*1179 FILLER_0_32_239
*1180 FILLER_0_32_243
*1181 FILLER_0_32_247
*1182 FILLER_0_32_255
*1183 FILLER_0_32_26
*1184 FILLER_0_32_276
*1185 FILLER_0_32_34
*1186 FILLER_0_32_41
*1187 FILLER_0_32_71
*1188 FILLER_0_32_75
*1189 FILLER_0_32_79
*1190 FILLER_0_32_87
*1191 FILLER_0_33_106
*1192 FILLER_0_33_122
*1193 FILLER_0_33_152
*1194 FILLER_0_33_156
*1195 FILLER_0_33_2
*1196 FILLER_0_33_209
*1197 FILLER_0_33_212
*1198 FILLER_0_33_216
*1199 FILLER_0_33_220
*1200 FILLER_0_33_23
*1201 FILLER_0_33_237
*1202 FILLER_0_33_241
*1203 FILLER_0_33_245
*1204 FILLER_0_33_262
*1205 FILLER_0_33_273
*1206 FILLER_0_33_61
*1207 FILLER_0_33_63
*1208 FILLER_0_33_86
*1209 FILLER_0_34_101
*1210 FILLER_0_34_104
*1211 FILLER_0_34_111
*1212 FILLER_0_34_115
*1213 FILLER_0_34_119
*1214 FILLER_0_34_138
*1215 FILLER_0_34_146
*1216 FILLER_0_34_169
*1217 FILLER_0_34_172
*1218 FILLER_0_34_174
*1219 FILLER_0_34_177
*1220 FILLER_0_34_2
*1221 FILLER_0_34_20
*1222 FILLER_0_34_203
*1223 FILLER_0_34_206
*1224 FILLER_0_34_221
*1225 FILLER_0_34_237
*1226 FILLER_0_34_240
*1227 FILLER_0_34_247
*1228 FILLER_0_34_255
*1229 FILLER_0_34_274
*1230 FILLER_0_34_276
*1231 FILLER_0_34_36
*1232 FILLER_0_34_43
*1233 FILLER_0_34_47
*1234 FILLER_0_34_51
*1235 FILLER_0_34_70
*1236 FILLER_0_34_93
*1237 FILLER_0_34_97
*1238 FILLER_0_3_115
*1239 FILLER_0_3_119
*1240 FILLER_0_3_123
*1241 FILLER_0_3_176
*1242 FILLER_0_3_178
*1243 FILLER_0_3_201
*1244 FILLER_0_3_209
*1245 FILLER_0_3_22
*1246 FILLER_0_3_232
*1247 FILLER_0_3_236
*1248 FILLER_0_3_240
*1249 FILLER_0_3_275
*1250 FILLER_0_3_68
*1251 FILLER_0_3_78
*1252 FILLER_0_3_80
*1253 FILLER_0_4_103
*1254 FILLER_0_4_113
*1255 FILLER_0_4_117
*1256 FILLER_0_4_121
*1257 FILLER_0_4_141
*1258 FILLER_0_4_149
*1259 FILLER_0_4_153
*1260 FILLER_0_4_155
*1261 FILLER_0_4_174
*1262 FILLER_0_4_177
*1263 FILLER_0_4_184
*1264 FILLER_0_4_188
*1265 FILLER_0_4_192
*1266 FILLER_0_4_209
*1267 FILLER_0_4_217
*1268 FILLER_0_4_234
*1269 FILLER_0_4_247
*1270 FILLER_0_4_255
*1271 FILLER_0_4_26
*1272 FILLER_0_4_276
*1273 FILLER_0_4_30
*1274 FILLER_0_4_32
*1275 FILLER_0_4_43
*1276 FILLER_0_4_78
*1277 FILLER_0_4_8
*1278 FILLER_0_4_82
*1279 FILLER_0_4_86
*1280 FILLER_0_5_10
*1281 FILLER_0_5_121
*1282 FILLER_0_5_125
*1283 FILLER_0_5_136
*1284 FILLER_0_5_142
*1285 FILLER_0_5_146
*1286 FILLER_0_5_150
*1287 FILLER_0_5_2
*1288 FILLER_0_5_201
*1289 FILLER_0_5_203
*1290 FILLER_0_5_212
*1291 FILLER_0_5_220
*1292 FILLER_0_5_237
*1293 FILLER_0_5_239
*1294 FILLER_0_5_274
*1295 FILLER_0_5_276
*1296 FILLER_0_5_6
*1297 FILLER_0_5_67
*1298 FILLER_0_5_69
*1299 FILLER_0_5_72
*1300 FILLER_0_5_86
*1301 FILLER_0_6_171
*1302 FILLER_0_6_2
*1303 FILLER_0_6_247
*1304 FILLER_0_6_251
*1305 FILLER_0_6_255
*1306 FILLER_0_6_26
*1307 FILLER_0_6_276
*1308 FILLER_0_6_30
*1309 FILLER_0_6_32
*1310 FILLER_0_7_148
*1311 FILLER_0_7_150
*1312 FILLER_0_7_185
*1313 FILLER_0_7_189
*1314 FILLER_0_7_191
*1315 FILLER_0_7_232
*1316 FILLER_0_7_276
*1317 FILLER_0_7_78
*1318 FILLER_0_7_82
*1319 FILLER_0_7_86
*1320 FILLER_0_8_104
*1321 FILLER_0_8_123
*1322 FILLER_0_8_164
*1323 FILLER_0_8_2
*1324 FILLER_0_8_241
*1325 FILLER_0_8_247
*1326 FILLER_0_8_251
*1327 FILLER_0_8_253
*1328 FILLER_0_8_26
*1329 FILLER_0_8_272
*1330 FILLER_0_8_274
*1331 FILLER_0_8_28
*1332 FILLER_0_8_31
*1333 FILLER_0_8_37
*1334 FILLER_0_8_39
*1335 FILLER_0_9_138
*1336 FILLER_0_9_152
*1337 FILLER_0_9_158
*1338 FILLER_0_9_160
*1339 FILLER_0_9_163
*1340 FILLER_0_9_181
*1341 FILLER_0_9_185
*1342 FILLER_0_9_189
*1343 FILLER_0_9_207
*1344 FILLER_0_9_209
*1345 FILLER_0_9_212
*1346 FILLER_0_9_214
*1347 FILLER_0_9_255
*1348 FILLER_0_9_273
*1349 FILLER_0_9_72
*1350 FILLER_0_9_76
*1351 FILLER_0_9_80
*1352 PHY_EDGE_ROW_0_Left_35
*1353 PHY_EDGE_ROW_0_Right_0
*1354 PHY_EDGE_ROW_10_Left_45
*1355 PHY_EDGE_ROW_10_Right_10
*1356 PHY_EDGE_ROW_11_Left_46
*1357 PHY_EDGE_ROW_11_Right_11
*1358 PHY_EDGE_ROW_12_Left_47
*1359 PHY_EDGE_ROW_12_Right_12
*1360 PHY_EDGE_ROW_13_Left_48
*1361 PHY_EDGE_ROW_13_Right_13
*1362 PHY_EDGE_ROW_14_Left_49
*1363 PHY_EDGE_ROW_14_Right_14
*1364 PHY_EDGE_ROW_15_Left_50
*1365 PHY_EDGE_ROW_15_Right_15
*1366 PHY_EDGE_ROW_16_Left_51
*1367 PHY_EDGE_ROW_16_Right_16
*1368 PHY_EDGE_ROW_17_Left_52
*1369 PHY_EDGE_ROW_17_Right_17
*1370 PHY_EDGE_ROW_18_Left_53
*1371 PHY_EDGE_ROW_18_Right_18
*1372 PHY_EDGE_ROW_19_Left_54
*1373 PHY_EDGE_ROW_19_Right_19
*1374 PHY_EDGE_ROW_1_Left_36
*1375 PHY_EDGE_ROW_1_Right_1
*1376 PHY_EDGE_ROW_20_Left_55
*1377 PHY_EDGE_ROW_20_Right_20
*1378 PHY_EDGE_ROW_21_Left_56
*1379 PHY_EDGE_ROW_21_Right_21
*1380 PHY_EDGE_ROW_22_Left_57
*1381 PHY_EDGE_ROW_22_Right_22
*1382 PHY_EDGE_ROW_23_Left_58
*1383 PHY_EDGE_ROW_23_Right_23
*1384 PHY_EDGE_ROW_24_Left_59
*1385 PHY_EDGE_ROW_24_Right_24
*1386 PHY_EDGE_ROW_25_Left_60
*1387 PHY_EDGE_ROW_25_Right_25
*1388 PHY_EDGE_ROW_26_Left_61
*1389 PHY_EDGE_ROW_26_Right_26
*1390 PHY_EDGE_ROW_27_Left_62
*1391 PHY_EDGE_ROW_27_Right_27
*1392 PHY_EDGE_ROW_28_Left_63
*1393 PHY_EDGE_ROW_28_Right_28
*1394 PHY_EDGE_ROW_29_Left_64
*1395 PHY_EDGE_ROW_29_Right_29
*1396 PHY_EDGE_ROW_2_Left_37
*1397 PHY_EDGE_ROW_2_Right_2
*1398 PHY_EDGE_ROW_30_Left_65
*1399 PHY_EDGE_ROW_30_Right_30
*1400 PHY_EDGE_ROW_31_Left_66
*1401 PHY_EDGE_ROW_31_Right_31
*1402 PHY_EDGE_ROW_32_Left_67
*1403 PHY_EDGE_ROW_32_Right_32
*1404 PHY_EDGE_ROW_33_Left_68
*1405 PHY_EDGE_ROW_33_Right_33
*1406 PHY_EDGE_ROW_34_Left_69
*1407 PHY_EDGE_ROW_34_Right_34
*1408 PHY_EDGE_ROW_3_Left_38
*1409 PHY_EDGE_ROW_3_Right_3