*SPEF "ieee 1481-1999"
*DESIGN "sb_1__0_"
*DATE "11:11:11 Fri 11 11, 1111"
*VENDOR "OpenRCX"
*PROGRAM "Parallel Extraction"
*VERSION "1.0"
*DESIGN_FLOW "NAME_SCOPE LOCAL" "PIN_CAP NONE"
*DIVIDER /
*DELIMITER :
*BUS_DELIMITER []
*T_UNIT 1 NS
*C_UNIT 1 PF
*R_UNIT 1 OHM
*L_UNIT 1 HENRY

*NAME_MAP
*1 ccff_head
*2 ccff_tail
*3 chanx_left_in[0]
*4 chanx_left_in[10]
*5 chanx_left_in[11]
*6 chanx_left_in[12]
*7 chanx_left_in[13]
*8 chanx_left_in[14]
*9 chanx_left_in[15]
*10 chanx_left_in[16]
*11 chanx_left_in[17]
*12 chanx_left_in[18]
*13 chanx_left_in[19]
*14 chanx_left_in[1]
*15 chanx_left_in[2]
*16 chanx_left_in[3]
*17 chanx_left_in[4]
*18 chanx_left_in[5]
*19 chanx_left_in[6]
*20 chanx_left_in[7]
*21 chanx_left_in[8]
*22 chanx_left_in[9]
*23 net96
*24 chanx_left_out[10]
*25 chanx_left_out[11]
*26 net93
*27 chanx_left_out[13]
*28 chanx_left_out[14]
*29 chanx_left_out[15]
*30 net92
*31 chanx_left_out[17]
*32 chanx_left_out[18]
*33 chanx_left_out[19]
*34 chanx_left_out[1]
*35 chanx_left_out[2]
*36 chanx_left_out[3]
*37 net95
*38 chanx_left_out[5]
*39 chanx_left_out[6]
*40 chanx_left_out[7]
*41 net94
*42 chanx_left_out[9]
*43 chanx_right_in[0]
*44 chanx_right_in[10]
*45 chanx_right_in[11]
*46 chanx_right_in[12]
*47 chanx_right_in[13]
*48 chanx_right_in[14]
*49 chanx_right_in[15]
*50 chanx_right_in[16]
*51 chanx_right_in[17]
*52 chanx_right_in[18]
*53 chanx_right_in[19]
*54 chanx_right_in[1]
*55 chanx_right_in[2]
*56 chanx_right_in[3]
*57 chanx_right_in[4]
*58 chanx_right_in[5]
*59 chanx_right_in[6]
*60 chanx_right_in[7]
*61 chanx_right_in[8]
*62 chanx_right_in[9]
*63 net91
*64 chanx_right_out[10]
*65 chanx_right_out[11]
*66 net88
*67 chanx_right_out[13]
*68 chanx_right_out[14]
*69 chanx_right_out[15]
*70 net87
*71 chanx_right_out[17]
*72 chanx_right_out[18]
*73 chanx_right_out[19]
*74 chanx_right_out[1]
*75 chanx_right_out[2]
*76 chanx_right_out[3]
*77 net90
*78 chanx_right_out[5]
*79 chanx_right_out[6]
*80 chanx_right_out[7]
*81 net89
*82 chanx_right_out[9]
*83 chany_top_in[0]
*84 chany_top_in[10]
*85 chany_top_in[11]
*86 chany_top_in[12]
*87 chany_top_in[13]
*88 chany_top_in[14]
*89 chany_top_in[15]
*90 chany_top_in[16]
*91 chany_top_in[17]
*92 chany_top_in[18]
*93 chany_top_in[19]
*94 chany_top_in[1]
*95 chany_top_in[2]
*96 chany_top_in[3]
*97 chany_top_in[4]
*98 chany_top_in[5]
*99 chany_top_in[6]
*100 chany_top_in[7]
*101 chany_top_in[8]
*102 chany_top_in[9]
*103 net86
*104 net76
*105 net75
*106 net74
*107 net73
*108 net72
*109 net71
*110 chany_top_out[16]
*111 chany_top_out[17]
*112 chany_top_out[18]
*113 net70
*114 net85
*115 net84
*116 net83
*117 net82
*118 net81
*119 net80
*120 net79
*121 net78
*122 net77
*123 left_bottom_grid_top_width_0_height_0_subtile_0__pin_inpad_0_
*124 left_bottom_grid_top_width_0_height_0_subtile_1__pin_inpad_0_
*125 left_bottom_grid_top_width_0_height_0_subtile_2__pin_inpad_0_
*126 left_bottom_grid_top_width_0_height_0_subtile_3__pin_inpad_0_
*127 left_top_grid_bottom_width_0_height_0_subtile_0__pin_O_2_
*128 left_top_grid_bottom_width_0_height_0_subtile_0__pin_O_6_
*129 pReset
*130 prog_clk
*131 right_bottom_grid_top_width_0_height_0_subtile_0__pin_inpad_0_
*132 right_bottom_grid_top_width_0_height_0_subtile_1__pin_inpad_0_
*133 right_bottom_grid_top_width_0_height_0_subtile_2__pin_inpad_0_
*134 right_bottom_grid_top_width_0_height_0_subtile_3__pin_inpad_0_
*135 right_top_grid_bottom_width_0_height_0_subtile_0__pin_O_2_
*136 right_top_grid_bottom_width_0_height_0_subtile_0__pin_O_6_
*137 top_left_grid_right_width_0_height_0_subtile_0__pin_O_1_
*138 top_left_grid_right_width_0_height_0_subtile_0__pin_O_5_
*139 top_right_grid_left_width_0_height_0_subtile_0__pin_O_3_
*140 top_right_grid_left_width_0_height_0_subtile_0__pin_O_7_
*143 _000_
*144 _001_
*145 _002_
*146 _003_
*147 _004_
*148 _005_
*149 _006_
*150 _007_
*151 _008_
*152 _009_
*153 _010_
*154 _011_
*155 _012_
*156 _013_
*157 _014_
*158 _015_
*159 _016_
*160 _017_
*161 _018_
*162 _019_
*163 _020_
*164 _021_
*165 _022_
*166 _023_
*167 _024_
*168 _025_
*169 _026_
*170 _027_
*171 _028_
*172 _029_
*173 _030_
*174 _031_
*175 _032_
*176 _033_
*177 _034_
*178 _035_
*179 _036_
*180 _037_
*181 _038_
*182 _039_
*183 _040_
*184 _041_
*185 _042_
*186 _043_
*187 _044_
*188 _045_
*189 _046_
*190 _047_
*191 _048_
*192 _049_
*193 _050_
*194 _051_
*195 _052_
*196 _053_
*197 _054_
*198 _055_
*199 _056_
*200 _057_
*201 _058_
*202 _059_
*203 _060_
*204 _061_
*205 _062_
*206 _063_
*207 _064_
*208 _065_
*209 _066_
*210 _067_
*211 _068_
*212 _069_
*213 _070_
*214 _071_
*215 _072_
*216 _073_
*217 _074_
*218 _075_
*219 _076_
*220 _077_
*221 _078_
*222 _079_
*223 _080_
*224 _081_
*225 _082_
*226 _083_
*227 _084_
*228 _085_
*229 _086_
*230 _087_
*231 _088_
*232 _089_
*233 _090_
*234 _091_
*235 _092_
*236 _093_
*237 _094_
*238 _095_
*239 _096_
*240 _097_
*241 _098_
*242 _099_
*243 _100_
*244 _101_
*245 _102_
*246 _103_
*247 _104_
*248 _105_
*249 _106_
*250 _107_
*251 _108_
*252 _109_
*253 _110_
*254 _111_
*255 _112_
*256 _113_
*257 _114_
*258 _115_
*259 _116_
*260 _117_
*261 _118_
*262 _119_
*263 _120_
*264 _121_
*265 _122_
*266 _123_
*267 _124_
*268 clknet_0_prog_clk
*269 clknet_3_0__leaf_prog_clk
*270 clknet_3_1__leaf_prog_clk
*271 clknet_3_2__leaf_prog_clk
*272 clknet_3_3__leaf_prog_clk
*273 clknet_3_4__leaf_prog_clk
*274 clknet_3_5__leaf_prog_clk
*275 clknet_3_6__leaf_prog_clk
*276 clknet_3_7__leaf_prog_clk
*277 mem_left_track_1\.DFFR_0_\.D
*278 mem_left_track_1\.DFFR_0_\.Q
*279 mem_left_track_1\.DFFR_1_\.Q
*280 mem_left_track_1\.DFFR_2_\.Q
*281 mem_left_track_1\.DFFR_3_\.Q
*282 mem_left_track_1\.DFFR_4_\.Q
*283 mem_left_track_1\.DFFR_5_\.Q
*284 mem_left_track_1\.DFFR_6_\.Q
*285 mem_left_track_1\.DFFR_7_\.Q
*286 mem_left_track_17\.DFFR_0_\.D
*287 mem_left_track_17\.DFFR_0_\.Q
*288 mem_left_track_17\.DFFR_1_\.Q
*289 mem_left_track_17\.DFFR_2_\.Q
*290 mem_left_track_17\.DFFR_3_\.Q
*291 mem_left_track_17\.DFFR_4_\.Q
*292 mem_left_track_17\.DFFR_5_\.Q
*293 mem_left_track_25\.DFFR_0_\.Q
*294 mem_left_track_25\.DFFR_1_\.Q
*295 mem_left_track_25\.DFFR_2_\.Q
*296 mem_left_track_25\.DFFR_3_\.Q
*297 mem_left_track_25\.DFFR_4_\.Q
*298 mem_left_track_25\.DFFR_5_\.Q
*299 mem_left_track_33\.DFFR_0_\.Q
*300 mem_left_track_33\.DFFR_1_\.Q
*301 mem_left_track_33\.DFFR_2_\.Q
*302 mem_left_track_33\.DFFR_3_\.Q
*303 mem_left_track_33\.DFFR_4_\.Q
*304 mem_left_track_9\.DFFR_0_\.Q
*305 mem_left_track_9\.DFFR_1_\.Q
*306 mem_left_track_9\.DFFR_2_\.Q
*307 mem_left_track_9\.DFFR_3_\.Q
*308 mem_left_track_9\.DFFR_4_\.Q
*309 mem_right_track_0\.DFFR_0_\.D
*310 mem_right_track_0\.DFFR_0_\.Q
*311 mem_right_track_0\.DFFR_1_\.Q
*312 mem_right_track_0\.DFFR_2_\.Q
*313 mem_right_track_0\.DFFR_3_\.Q
*314 mem_right_track_0\.DFFR_4_\.Q
*315 mem_right_track_0\.DFFR_5_\.Q
*316 mem_right_track_0\.DFFR_6_\.Q
*317 mem_right_track_0\.DFFR_7_\.Q
*318 mem_right_track_16\.DFFR_0_\.D
*319 mem_right_track_16\.DFFR_0_\.Q
*320 mem_right_track_16\.DFFR_1_\.Q
*321 mem_right_track_16\.DFFR_2_\.Q
*322 mem_right_track_16\.DFFR_3_\.Q
*323 mem_right_track_16\.DFFR_4_\.Q
*324 mem_right_track_16\.DFFR_5_\.Q
*325 mem_right_track_24\.DFFR_0_\.Q
*326 mem_right_track_24\.DFFR_1_\.Q
*327 mem_right_track_24\.DFFR_2_\.Q
*328 mem_right_track_24\.DFFR_3_\.Q
*329 mem_right_track_24\.DFFR_4_\.Q
*330 mem_right_track_24\.DFFR_5_\.Q
*331 mem_right_track_32\.DFFR_0_\.Q
*332 mem_right_track_32\.DFFR_1_\.Q
*333 mem_right_track_32\.DFFR_2_\.Q
*334 mem_right_track_32\.DFFR_3_\.Q
*335 mem_right_track_32\.DFFR_4_\.Q
*336 mem_right_track_8\.DFFR_0_\.Q
*337 mem_right_track_8\.DFFR_1_\.Q
*338 mem_right_track_8\.DFFR_2_\.Q
*339 mem_right_track_8\.DFFR_3_\.Q
*340 mem_right_track_8\.DFFR_4_\.Q
*341 mem_top_track_0\.DFFR_0_\.Q
*342 mem_top_track_0\.DFFR_1_\.Q
*343 mem_top_track_0\.DFFR_2_\.Q
*344 mem_top_track_0\.DFFR_3_\.Q
*345 mem_top_track_0\.DFFR_4_\.Q
*346 mem_top_track_0\.DFFR_5_\.Q
*347 mem_top_track_10\.DFFR_0_\.D
*348 mem_top_track_10\.DFFR_0_\.Q
*349 mem_top_track_10\.DFFR_1_\.Q
*350 mem_top_track_12\.DFFR_0_\.Q
*351 mem_top_track_12\.DFFR_1_\.Q
*352 mem_top_track_14\.DFFR_0_\.Q
*353 mem_top_track_14\.DFFR_1_\.Q
*354 mem_top_track_16\.DFFR_0_\.Q
*355 mem_top_track_16\.DFFR_1_\.Q
*356 mem_top_track_18\.DFFR_0_\.Q
*357 mem_top_track_18\.DFFR_1_\.Q
*358 mem_top_track_2\.DFFR_0_\.Q
*359 mem_top_track_2\.DFFR_1_\.Q
*360 mem_top_track_2\.DFFR_2_\.Q
*361 mem_top_track_2\.DFFR_3_\.Q
*362 mem_top_track_2\.DFFR_4_\.Q
*363 mem_top_track_2\.DFFR_5_\.Q
*364 mem_top_track_20\.DFFR_0_\.Q
*365 mem_top_track_20\.DFFR_1_\.Q
*366 mem_top_track_22\.DFFR_0_\.Q
*367 mem_top_track_22\.DFFR_1_\.Q
*368 mem_top_track_24\.DFFR_0_\.Q
*369 mem_top_track_24\.DFFR_1_\.Q
*370 mem_top_track_26\.DFFR_0_\.Q
*371 mem_top_track_26\.DFFR_1_\.Q
*372 mem_top_track_28\.DFFR_0_\.Q
*373 mem_top_track_28\.DFFR_1_\.Q
*374 mem_top_track_38\.DFFR_0_\.Q
*375 mem_top_track_4\.DFFR_0_\.Q
*376 mem_top_track_4\.DFFR_1_\.Q
*377 mem_top_track_4\.DFFR_2_\.Q
*378 mem_top_track_4\.DFFR_3_\.Q
*379 mem_top_track_4\.DFFR_4_\.Q
*380 mem_top_track_4\.DFFR_5_\.Q
*381 mem_top_track_6\.DFFR_0_\.Q
*382 mem_top_track_6\.DFFR_1_\.Q
*383 mem_top_track_6\.DFFR_2_\.Q
*384 mem_top_track_6\.DFFR_3_\.Q
*385 mem_top_track_6\.DFFR_4_\.Q
*386 mem_top_track_6\.DFFR_5_\.Q
*387 mem_top_track_8\.DFFR_0_\.Q
*388 net1
*389 net10
*390 net100
*391 net101
*392 net102
*393 net103
*394 net104
*395 net105
*396 net106
*397 net107
*398 net108
*399 net109
*400 net11
*401 net110
*402 net111
*403 net112
*404 net113
*405 net114
*406 net115
*407 net116
*408 net117
*409 net118
*410 net119
*411 net12
*412 net120
*413 net121
*414 net122
*415 net123
*416 net124
*417 net125
*418 net126
*419 net127
*420 net128
*421 net129
*422 net13
*423 net130
*424 net131
*425 net132
*426 net133
*427 net134
*428 net135
*429 net136
*430 net137
*431 net138
*432 net139
*433 net14
*434 net140
*435 net141
*436 net142
*437 net143
*438 net144
*439 net145
*440 net146
*441 net147
*442 net148
*443 net149
*444 net15
*445 net150
*446 net151
*447 net152
*448 net153
*449 net154
*450 net155
*451 net156
*452 net157
*453 net158
*454 net159
*455 net16
*456 net160
*457 net161
*458 net162
*459 net163
*460 net164
*461 net165
*462 net166
*463 net167
*464 net168
*465 net169
*466 net17
*467 net170
*468 net171
*469 net172
*470 net173
*471 net174
*472 net175
*473 net176
*474 net177
*475 net178
*476 net179
*477 net18
*478 net180
*479 net181
*480 net182
*481 net183
*482 net184
*483 net185
*484 net186
*485 net187
*486 net188
*487 net189
*488 net19
*489 net190
*490 net191
*491 net192
*492 net193
*493 net194
*494 net195
*495 net196
*496 net197
*497 net198
*498 net199
*499 net2
*500 net20
*501 net200
*502 net201
*503 net202
*504 net203
*505 net204
*506 net205
*507 net206
*508 net207
*509 net21
*510 net22
*511 net23
*512 net24
*513 net25
*514 net26
*515 net27
*516 net28
*517 net29
*518 net3
*519 net30
*520 net31
*521 net32
*522 net33
*523 net34
*524 net35
*525 net36
*526 net37
*527 net38
*528 net39
*529 net4
*530 net40
*531 net41
*532 net42
*533 net43
*534 net44
*535 net45
*536 net46
*537 net47
*538 net48
*539 net49
*540 net5
*541 net50
*542 net51
*543 net52
*544 net53
*545 net54
*546 net55
*547 net56
*548 net57
*549 net58
*550 net59
*551 net6
*552 net60
*553 net61
*554 net62
*555 net63
*556 net64
*557 net65
*558 net66
*559 net67
*560 net68
*561 net69
*562 net7
*563 net8
*564 net9
*565 net97
*566 net98
*567 net99
*568 ANTENNA__127__I
*569 ANTENNA__138__I
*570 ANTENNA__149__I
*571 ANTENNA__160__I
*572 ANTENNA__161__I
*573 ANTENNA__162__I
*574 ANTENNA__163__I
*575 ANTENNA__164__I
*576 ANTENNA__165__I
*577 ANTENNA__166__I
*578 ANTENNA__167__I
*579 ANTENNA__168__I
*580 ANTENNA__169__I
*581 ANTENNA__170__I
*582 ANTENNA__171__I
*583 ANTENNA__172__I
*584 ANTENNA__173__I
*585 ANTENNA__174__I
*586 ANTENNA__175__I
*587 ANTENNA__176__I
*588 ANTENNA__177__I
*589 ANTENNA__178__I
*590 ANTENNA__179__I
*591 ANTENNA__180__I
*592 ANTENNA__181__I
*593 ANTENNA__182__I
*594 ANTENNA__193__I
*595 ANTENNA__194__I
*596 ANTENNA__195__I
*597 ANTENNA__196__I
*598 ANTENNA__197__I
*599 ANTENNA__198__I
*600 ANTENNA__199__I
*601 ANTENNA__200__I
*602 ANTENNA__201__I
*603 ANTENNA__202__I
*604 ANTENNA__203__I
*605 ANTENNA__204__I
*606 ANTENNA__205__I
*607 ANTENNA__206__I
*608 ANTENNA__207__I
*609 ANTENNA__208__I
*610 ANTENNA__209__I
*611 ANTENNA__210__I
*612 ANTENNA__211__I
*613 ANTENNA__212__I
*614 ANTENNA__213__I
*615 ANTENNA__214__I
*616 ANTENNA__248__I
*617 ANTENNA__249__I
*618 ANTENNA__250__CLK
*619 ANTENNA__251__CLK
*620 ANTENNA__252__CLK
*621 ANTENNA__253__CLK
*622 ANTENNA__254__CLK
*623 ANTENNA__255__CLK
*624 ANTENNA__256__CLK
*625 ANTENNA__257__CLK
*626 ANTENNA__258__CLK
*627 ANTENNA__259__CLK
*628 ANTENNA__260__CLK
*629 ANTENNA__261__CLK
*630 ANTENNA__262__CLK
*631 ANTENNA__263__CLK
*632 ANTENNA__264__CLK
*633 ANTENNA__265__CLK
*634 ANTENNA__266__CLK
*635 ANTENNA__267__CLK
*636 ANTENNA__268__CLK
*637 ANTENNA__269__CLK
*638 ANTENNA__271__CLK
*639 ANTENNA__272__CLK
*640 ANTENNA__273__CLK
*641 ANTENNA__274__CLK
*642 ANTENNA__275__CLK
*643 ANTENNA__276__CLK
*644 ANTENNA__277__CLK
*645 ANTENNA__278__CLK
*646 ANTENNA__282__CLK
*647 ANTENNA__284__CLK
*648 ANTENNA__285__CLK
*649 ANTENNA__288__CLK
*650 ANTENNA__290__CLK
*651 ANTENNA__291__CLK
*652 ANTENNA__292__CLK
*653 ANTENNA__293__CLK
*654 ANTENNA__294__CLK
*655 ANTENNA__295__CLK
*656 ANTENNA__296__CLK
*657 ANTENNA__297__CLK
*658 ANTENNA__298__CLK
*659 ANTENNA__299__CLK
*660 ANTENNA__300__CLK
*661 ANTENNA__302__CLK
*662 ANTENNA__305__CLK
*663 ANTENNA__306__CLK
*664 ANTENNA__307__CLK
*665 ANTENNA__308__CLK
*666 ANTENNA__309__CLK
*667 ANTENNA__310__CLK
*668 ANTENNA__311__CLK
*669 ANTENNA__312__CLK
*670 ANTENNA__313__CLK
*671 ANTENNA__314__CLK
*672 ANTENNA__315__CLK
*673 ANTENNA__316__CLK
*674 ANTENNA__317__CLK
*675 ANTENNA__318__CLK
*676 ANTENNA__319__CLK
*677 ANTENNA__320__CLK
*678 ANTENNA__321__CLK
*679 ANTENNA__322__CLK
*680 ANTENNA__323__CLK
*681 ANTENNA__324__CLK
*682 ANTENNA__325__CLK
*683 ANTENNA__326__CLK
*684 ANTENNA__327__CLK
*685 ANTENNA__328__CLK
*686 ANTENNA__329__CLK
*687 ANTENNA__330__CLK
*688 ANTENNA__331__CLK
*689 ANTENNA__332__CLK
*690 ANTENNA__333__CLK
*691 ANTENNA__334__CLK
*692 ANTENNA__335__CLK
*693 ANTENNA__336__CLK
*694 ANTENNA__337__CLK
*695 ANTENNA__338__CLK
*696 ANTENNA__339__CLK
*697 ANTENNA__340__CLK
*698 ANTENNA__341__CLK
*699 ANTENNA__342__CLK
*700 ANTENNA__343__CLK
*701 ANTENNA__344__CLK
*702 ANTENNA__345__CLK
*703 ANTENNA__346__CLK
*704 ANTENNA__347__CLK
*705 ANTENNA__348__CLK
*706 ANTENNA__349__CLK
*707 ANTENNA__350__CLK
*708 ANTENNA__351__CLK
*709 ANTENNA__352__CLK
*710 ANTENNA__353__CLK
*711 ANTENNA__354__CLK
*712 ANTENNA__355__CLK
*713 ANTENNA__356__CLK
*714 ANTENNA__357__CLK
*715 ANTENNA__358__CLK
*716 ANTENNA__359__CLK
*717 ANTENNA__360__CLK
*718 ANTENNA__361__CLK
*719 ANTENNA__389__I
*720 ANTENNA__395__I
*721 ANTENNA_clkbuf_0_prog_clk_I
*722 ANTENNA_clkbuf_3_0__f_prog_clk_I
*723 ANTENNA_clkbuf_3_1__f_prog_clk_I
*724 ANTENNA_clkbuf_3_2__f_prog_clk_I
*725 ANTENNA_clkbuf_3_3__f_prog_clk_I
*726 ANTENNA_clkbuf_3_4__f_prog_clk_I
*727 ANTENNA_clkbuf_3_5__f_prog_clk_I
*728 ANTENNA_clkbuf_3_6__f_prog_clk_I
*729 ANTENNA_clkbuf_3_7__f_prog_clk_I
*730 ANTENNA_input10_I
*731 ANTENNA_input11_I
*732 ANTENNA_input12_I
*733 ANTENNA_input13_I
*734 ANTENNA_input14_I
*735 ANTENNA_input15_I
*736 ANTENNA_input16_I
*737 ANTENNA_input17_I
*738 ANTENNA_input18_I
*739 ANTENNA_input19_I
*740 ANTENNA_input1_I
*741 ANTENNA_input20_I
*742 ANTENNA_input21_I
*743 ANTENNA_input22_I
*744 ANTENNA_input23_I
*745 ANTENNA_input24_I
*746 ANTENNA_input25_I
*747 ANTENNA_input26_I
*748 ANTENNA_input27_I
*749 ANTENNA_input28_I
*750 ANTENNA_input29_I
*751 ANTENNA_input2_I
*752 ANTENNA_input30_I
*753 ANTENNA_input31_I
*754 ANTENNA_input32_I
*755 ANTENNA_input33_I
*756 ANTENNA_input34_I
*757 ANTENNA_input35_I
*758 ANTENNA_input3_I
*759 ANTENNA_input4_I
*760 ANTENNA_input5_I
*761 ANTENNA_input6_I
*762 ANTENNA_input7_I
*763 ANTENNA_input8_I
*764 ANTENNA_input9_I
*765 ANTENNA_output36_I
*766 ANTENNA_output62_I
*767 FILLER_0_0_101
*768 FILLER_0_0_108
*769 FILLER_0_0_124
*770 FILLER_0_0_132
*771 FILLER_0_0_138
*772 FILLER_0_0_172
*773 FILLER_0_0_206
*774 FILLER_0_0_240
*775 FILLER_0_0_26
*776 FILLER_0_0_274
*777 FILLER_0_0_30
*778 FILLER_0_0_308
*779 FILLER_0_0_342
*780 FILLER_0_0_358
*781 FILLER_0_0_36
*782 FILLER_0_0_40
*783 FILLER_0_0_53
*784 FILLER_0_0_64
*785 FILLER_0_0_74
*786 FILLER_0_0_76
*787 FILLER_0_0_95
*788 FILLER_0_0_99
*789 FILLER_0_10_107
*790 FILLER_0_10_111
*791 FILLER_0_10_115
*792 FILLER_0_10_117
*793 FILLER_0_10_170
*794 FILLER_0_10_174
*795 FILLER_0_10_177
*796 FILLER_0_10_185
*797 FILLER_0_10_2
*798 FILLER_0_10_202
*799 FILLER_0_10_210
*800 FILLER_0_10_214
*801 FILLER_0_10_242
*802 FILLER_0_10_244
*803 FILLER_0_10_247
*804 FILLER_0_10_255
*805 FILLER_0_10_306
*806 FILLER_0_10_310
*807 FILLER_0_10_312
*808 FILLER_0_10_327
*809 FILLER_0_10_329
*810 FILLER_0_10_332
*811 FILLER_0_10_34
*812 FILLER_0_10_348
*813 FILLER_0_10_37
*814 FILLER_0_10_53
*815 FILLER_0_11_129
*816 FILLER_0_11_142
*817 FILLER_0_11_146
*818 FILLER_0_11_150
*819 FILLER_0_11_2
*820 FILLER_0_11_204
*821 FILLER_0_11_208
*822 FILLER_0_11_326
*823 FILLER_0_11_330
*824 FILLER_0_11_34
*825 FILLER_0_11_342
*826 FILLER_0_11_352
*827 FILLER_0_11_360
*828 FILLER_0_11_364
*829 FILLER_0_11_82
*830 FILLER_0_11_84
*831 FILLER_0_12_107
*832 FILLER_0_12_118
*833 FILLER_0_12_126
*834 FILLER_0_12_130
*835 FILLER_0_12_150
*836 FILLER_0_12_158
*837 FILLER_0_12_187
*838 FILLER_0_12_2
*839 FILLER_0_12_243
*840 FILLER_0_12_28
*841 FILLER_0_12_281
*842 FILLER_0_12_285
*843 FILLER_0_12_289
*844 FILLER_0_12_306
*845 FILLER_0_12_314
*846 FILLER_0_12_317
*847 FILLER_0_12_32
*848 FILLER_0_12_321
*849 FILLER_0_12_34
*850 FILLER_0_12_355
*851 FILLER_0_12_363
*852 FILLER_0_12_365
*853 FILLER_0_12_37
*854 FILLER_0_12_41
*855 FILLER_0_12_86
*856 FILLER_0_12_90
*857 FILLER_0_12_94
*858 FILLER_0_13_105
*859 FILLER_0_13_212
*860 FILLER_0_13_220
*861 FILLER_0_13_255
*862 FILLER_0_13_263
*863 FILLER_0_13_316
*864 FILLER_0_13_320
*865 FILLER_0_13_322
*866 FILLER_0_13_339
*867 FILLER_0_13_345
*868 FILLER_0_13_349
*869 FILLER_0_13_352
*870 FILLER_0_13_36
*871 FILLER_0_13_360
*872 FILLER_0_13_364
*873 FILLER_0_13_40
*874 FILLER_0_13_48
*875 FILLER_0_13_52
*876 FILLER_0_13_72
*877 FILLER_0_13_80
*878 FILLER_0_13_97
*879 FILLER_0_14_104
*880 FILLER_0_14_107
*881 FILLER_0_14_123
*882 FILLER_0_14_171
*883 FILLER_0_14_177
*884 FILLER_0_14_181
*885 FILLER_0_14_195
*886 FILLER_0_14_2
*887 FILLER_0_14_203
*888 FILLER_0_14_221
*889 FILLER_0_14_229
*890 FILLER_0_14_233
*891 FILLER_0_14_241
*892 FILLER_0_14_247
*893 FILLER_0_14_251
*894 FILLER_0_14_253
*895 FILLER_0_14_26
*896 FILLER_0_14_270
*897 FILLER_0_14_274
*898 FILLER_0_14_276
*899 FILLER_0_14_289
*900 FILLER_0_14_297
*901 FILLER_0_14_34
*902 FILLER_0_14_351
*903 FILLER_0_14_359
*904 FILLER_0_14_363
*905 FILLER_0_14_365
*906 FILLER_0_14_37
*907 FILLER_0_14_79
*908 FILLER_0_14_83
*909 FILLER_0_14_87
*910 FILLER_0_15_125
*911 FILLER_0_15_129
*912 FILLER_0_15_142
*913 FILLER_0_15_150
*914 FILLER_0_15_167
*915 FILLER_0_15_19
*916 FILLER_0_15_2
*917 FILLER_0_15_205
*918 FILLER_0_15_209
*919 FILLER_0_15_212
*920 FILLER_0_15_228
*921 FILLER_0_15_232
*922 FILLER_0_15_249
*923 FILLER_0_15_253
*924 FILLER_0_15_257
*925 FILLER_0_15_27
*926 FILLER_0_15_277
*927 FILLER_0_15_279
*928 FILLER_0_15_282
*929 FILLER_0_15_290
*930 FILLER_0_15_307
*931 FILLER_0_15_311
*932 FILLER_0_15_313
*933 FILLER_0_15_352
*934 FILLER_0_15_360
*935 FILLER_0_15_364
*936 FILLER_0_15_62
*937 FILLER_0_15_66
*938 FILLER_0_15_72
*939 FILLER_0_15_80
*940 FILLER_0_15_84
*941 FILLER_0_15_86
*942 FILLER_0_16_104
*943 FILLER_0_16_117
*944 FILLER_0_16_168
*945 FILLER_0_16_172
*946 FILLER_0_16_174
*947 FILLER_0_16_187
*948 FILLER_0_16_195
*949 FILLER_0_16_2
*950 FILLER_0_16_230
*951 FILLER_0_16_238
*952 FILLER_0_16_242
*953 FILLER_0_16_26
*954 FILLER_0_16_311
*955 FILLER_0_16_317
*956 FILLER_0_16_34
*957 FILLER_0_16_353
*958 FILLER_0_16_361
*959 FILLER_0_16_365
*960 FILLER_0_16_71
*961 FILLER_0_16_75
*962 FILLER_0_16_79
*963 FILLER_0_16_96
*964 FILLER_0_17_128
*965 FILLER_0_17_132
*966 FILLER_0_17_142
*967 FILLER_0_17_150
*968 FILLER_0_17_154
*969 FILLER_0_17_156
*970 FILLER_0_17_193
*971 FILLER_0_17_209
*972 FILLER_0_17_246
*973 FILLER_0_17_254
*974 FILLER_0_17_271
*975 FILLER_0_17_279
*976 FILLER_0_17_282
*977 FILLER_0_17_318
*978 FILLER_0_17_322
*979 FILLER_0_17_326
*980 FILLER_0_17_330
*981 FILLER_0_17_347
*982 FILLER_0_17_349
*983 FILLER_0_17_352
*984 FILLER_0_17_36
*985 FILLER_0_17_360
*986 FILLER_0_17_364
*987 FILLER_0_17_40
*988 FILLER_0_17_48
*989 FILLER_0_17_52
*990 FILLER_0_17_72
*991 FILLER_0_17_76
*992 FILLER_0_18_107
*993 FILLER_0_18_121
*994 FILLER_0_18_129
*995 FILLER_0_18_171
*996 FILLER_0_18_177
*997 FILLER_0_18_185
*998 FILLER_0_18_189
*999 FILLER_0_18_191
*1000 FILLER_0_18_2
*1001 FILLER_0_18_232
*1002 FILLER_0_18_236
*1003 FILLER_0_18_240
*1004 FILLER_0_18_242
*1005 FILLER_0_18_285
*1006 FILLER_0_18_289
*1007 FILLER_0_18_309
*1008 FILLER_0_18_313
*1009 FILLER_0_18_317
*1010 FILLER_0_18_325
*1011 FILLER_0_18_352
*1012 FILLER_0_18_356
*1013 FILLER_0_18_364
*1014 FILLER_0_18_37
*1015 FILLER_0_18_4
*1016 FILLER_0_18_41
*1017 FILLER_0_18_43
*1018 FILLER_0_18_62
*1019 FILLER_0_18_70
*1020 FILLER_0_19_134
*1021 FILLER_0_19_138
*1022 FILLER_0_19_142
*1023 FILLER_0_19_146
*1024 FILLER_0_19_176
*1025 FILLER_0_19_192
*1026 FILLER_0_19_2
*1027 FILLER_0_19_212
*1028 FILLER_0_19_214
*1029 FILLER_0_19_225
*1030 FILLER_0_19_277
*1031 FILLER_0_19_279
*1032 FILLER_0_19_342
*1033 FILLER_0_19_346
*1034 FILLER_0_19_352
*1035 FILLER_0_19_360
*1036 FILLER_0_19_364
*1037 FILLER_0_19_4
*1038 FILLER_0_19_49
*1039 FILLER_0_19_72
*1040 FILLER_0_19_74
*1041 FILLER_0_19_91
*1042 FILLER_0_19_99
*1043 FILLER_0_1_12
*1044 FILLER_0_1_136
*1045 FILLER_0_1_142
*1046 FILLER_0_1_206
*1047 FILLER_0_1_212
*1048 FILLER_0_1_25
*1049 FILLER_0_1_276
*1050 FILLER_0_1_282
*1051 FILLER_0_1_29
*1052 FILLER_0_1_33
*1053 FILLER_0_1_346
*1054 FILLER_0_1_352
*1055 FILLER_0_1_360
*1056 FILLER_0_1_364
*1057 FILLER_0_1_37
*1058 FILLER_0_1_41
*1059 FILLER_0_1_57
*1060 FILLER_0_1_65
*1061 FILLER_0_1_69
*1062 FILLER_0_1_72
*1063 FILLER_0_20_100
*1064 FILLER_0_20_104
*1065 FILLER_0_20_2
*1066 FILLER_0_20_211
*1067 FILLER_0_20_215
*1068 FILLER_0_20_217
*1069 FILLER_0_20_236
*1070 FILLER_0_20_244
*1071 FILLER_0_20_26
*1072 FILLER_0_20_281
*1073 FILLER_0_20_285
*1074 FILLER_0_20_289
*1075 FILLER_0_20_306
*1076 FILLER_0_20_314
*1077 FILLER_0_20_317
*1078 FILLER_0_20_325
*1079 FILLER_0_20_34
*1080 FILLER_0_20_342
*1081 FILLER_0_20_358
*1082 FILLER_0_20_37
*1083 FILLER_0_20_57
*1084 FILLER_0_20_65
*1085 FILLER_0_21_10
*1086 FILLER_0_21_12
*1087 FILLER_0_21_122
*1088 FILLER_0_21_126
*1089 FILLER_0_21_180
*1090 FILLER_0_21_184
*1091 FILLER_0_21_2
*1092 FILLER_0_21_200
*1093 FILLER_0_21_208
*1094 FILLER_0_21_222
*1095 FILLER_0_21_228
*1096 FILLER_0_21_264
*1097 FILLER_0_21_272
*1098 FILLER_0_21_276
*1099 FILLER_0_21_292
*1100 FILLER_0_21_300
*1101 FILLER_0_21_335
*1102 FILLER_0_21_339
*1103 FILLER_0_21_347
*1104 FILLER_0_21_349
*1105 FILLER_0_21_352
*1106 FILLER_0_21_360
*1107 FILLER_0_21_364
*1108 FILLER_0_21_6
*1109 FILLER_0_21_67
*1110 FILLER_0_21_69
*1111 FILLER_0_21_72
*1112 FILLER_0_21_76
*1113 FILLER_0_21_80
*1114 FILLER_0_22_100
*1115 FILLER_0_22_102
*1116 FILLER_0_22_141
*1117 FILLER_0_22_145
*1118 FILLER_0_22_162
*1119 FILLER_0_22_166
*1120 FILLER_0_22_170
*1121 FILLER_0_22_172
*1122 FILLER_0_22_177
*1123 FILLER_0_22_238
*1124 FILLER_0_22_242
*1125 FILLER_0_22_244
*1126 FILLER_0_22_247
*1127 FILLER_0_22_255
*1128 FILLER_0_22_259
*1129 FILLER_0_22_26
*1130 FILLER_0_22_261
*1131 FILLER_0_22_296
*1132 FILLER_0_22_300
*1133 FILLER_0_22_304
*1134 FILLER_0_22_312
*1135 FILLER_0_22_314
*1136 FILLER_0_22_317
*1137 FILLER_0_22_319
*1138 FILLER_0_22_322
*1139 FILLER_0_22_34
*1140 FILLER_0_22_342
*1141 FILLER_0_22_346
*1142 FILLER_0_22_362
*1143 FILLER_0_22_37
*1144 FILLER_0_22_8
*1145 FILLER_0_22_88
*1146 FILLER_0_22_92
*1147 FILLER_0_23_142
*1148 FILLER_0_23_146
*1149 FILLER_0_23_170
*1150 FILLER_0_23_174
*1151 FILLER_0_23_209
*1152 FILLER_0_23_292
*1153 FILLER_0_23_294
*1154 FILLER_0_23_349
*1155 FILLER_0_23_352
*1156 FILLER_0_23_36
*1157 FILLER_0_23_360
*1158 FILLER_0_23_364
*1159 FILLER_0_23_40
*1160 FILLER_0_23_44
*1161 FILLER_0_23_61
*1162 FILLER_0_23_69
*1163 FILLER_0_24_107
*1164 FILLER_0_24_12
*1165 FILLER_0_24_123
*1166 FILLER_0_24_127
*1167 FILLER_0_24_162
*1168 FILLER_0_24_164
*1169 FILLER_0_24_177
*1170 FILLER_0_24_179
*1171 FILLER_0_24_244
*1172 FILLER_0_24_28
*1173 FILLER_0_24_317
*1174 FILLER_0_24_32
*1175 FILLER_0_24_321
*1176 FILLER_0_24_325
*1177 FILLER_0_24_34
*1178 FILLER_0_24_352
*1179 FILLER_0_24_356
*1180 FILLER_0_24_364
*1181 FILLER_0_24_37
*1182 FILLER_0_24_45
*1183 FILLER_0_24_62
*1184 FILLER_0_24_70
*1185 FILLER_0_24_8
*1186 FILLER_0_25_127
*1187 FILLER_0_25_135
*1188 FILLER_0_25_139
*1189 FILLER_0_25_142
*1190 FILLER_0_25_180
*1191 FILLER_0_25_184
*1192 FILLER_0_25_201
*1193 FILLER_0_25_209
*1194 FILLER_0_25_212
*1195 FILLER_0_25_220
*1196 FILLER_0_25_226
*1197 FILLER_0_25_268
*1198 FILLER_0_25_276
*1199 FILLER_0_25_282
*1200 FILLER_0_25_286
*1201 FILLER_0_25_290
*1202 FILLER_0_25_307
*1203 FILLER_0_25_309
*1204 FILLER_0_25_344
*1205 FILLER_0_25_348
*1206 FILLER_0_25_352
*1207 FILLER_0_25_36
*1208 FILLER_0_25_360
*1209 FILLER_0_25_364
*1210 FILLER_0_25_40
*1211 FILLER_0_25_44
*1212 FILLER_0_25_61
*1213 FILLER_0_25_69
*1214 FILLER_0_25_72
*1215 FILLER_0_25_90
*1216 FILLER_0_25_92
*1217 FILLER_0_26_100
*1218 FILLER_0_26_104
*1219 FILLER_0_26_107
*1220 FILLER_0_26_109
*1221 FILLER_0_26_12
*1222 FILLER_0_26_126
*1223 FILLER_0_26_130
*1224 FILLER_0_26_134
*1225 FILLER_0_26_177
*1226 FILLER_0_26_181
*1227 FILLER_0_26_185
*1228 FILLER_0_26_202
*1229 FILLER_0_26_210
*1230 FILLER_0_26_227
*1231 FILLER_0_26_243
*1232 FILLER_0_26_247
*1233 FILLER_0_26_255
*1234 FILLER_0_26_257
*1235 FILLER_0_26_260
*1236 FILLER_0_26_28
*1237 FILLER_0_26_305
*1238 FILLER_0_26_309
*1239 FILLER_0_26_313
*1240 FILLER_0_26_317
*1241 FILLER_0_26_32
*1242 FILLER_0_26_34
*1243 FILLER_0_26_352
*1244 FILLER_0_26_360
*1245 FILLER_0_26_364
*1246 FILLER_0_26_37
*1247 FILLER_0_26_53
*1248 FILLER_0_26_8
*1249 FILLER_0_26_88
*1250 FILLER_0_26_96
*1251 FILLER_0_27_134
*1252 FILLER_0_27_138
*1253 FILLER_0_27_154
*1254 FILLER_0_27_16
*1255 FILLER_0_27_195
*1256 FILLER_0_27_199
*1257 FILLER_0_27_207
*1258 FILLER_0_27_209
*1259 FILLER_0_27_222
*1260 FILLER_0_27_238
*1261 FILLER_0_27_242
*1262 FILLER_0_27_282
*1263 FILLER_0_27_286
*1264 FILLER_0_27_290
*1265 FILLER_0_27_307
*1266 FILLER_0_27_309
*1267 FILLER_0_27_312
*1268 FILLER_0_27_32
*1269 FILLER_0_27_342
*1270 FILLER_0_27_346
*1271 FILLER_0_27_352
*1272 FILLER_0_27_360
*1273 FILLER_0_27_364
*1274 FILLER_0_27_40
*1275 FILLER_0_27_58
*1276 FILLER_0_27_66
*1277 FILLER_0_27_72
*1278 FILLER_0_27_76
*1279 FILLER_0_28_107
*1280 FILLER_0_28_115
*1281 FILLER_0_28_16
*1282 FILLER_0_28_169
*1283 FILLER_0_28_173
*1284 FILLER_0_28_177
*1285 FILLER_0_28_2
*1286 FILLER_0_28_225
*1287 FILLER_0_28_229
*1288 FILLER_0_28_233
*1289 FILLER_0_28_241
*1290 FILLER_0_28_317
*1291 FILLER_0_28_32
*1292 FILLER_0_28_34
*1293 FILLER_0_28_353
*1294 FILLER_0_28_361
*1295 FILLER_0_28_365
*1296 FILLER_0_28_37
*1297 FILLER_0_28_45
*1298 FILLER_0_28_71
*1299 FILLER_0_28_75
*1300 FILLER_0_28_83
*1301 FILLER_0_28_87
*1302 FILLER_0_29_142
*1303 FILLER_0_29_146
*1304 FILLER_0_29_150
*1305 FILLER_0_29_173
*1306 FILLER_0_29_2
*1307 FILLER_0_29_208
*1308 FILLER_0_29_212
*1309 FILLER_0_29_216
*1310 FILLER_0_29_22
*1311 FILLER_0_29_277
*1312 FILLER_0_29_279
*1313 FILLER_0_29_30
*1314 FILLER_0_29_34
*1315 FILLER_0_29_342
*1316 FILLER_0_29_346
*1317 FILLER_0_29_352
*1318 FILLER_0_29_360
*1319 FILLER_0_29_364
*1320 FILLER_0_29_72
*1321 FILLER_0_29_96
*1322 FILLER_0_2_101
*1323 FILLER_0_2_107
*1324 FILLER_0_2_171
*1325 FILLER_0_2_177
*1326 FILLER_0_2_241
*1327 FILLER_0_2_247
*1328 FILLER_0_2_31
*1329 FILLER_0_2_311
*1330 FILLER_0_2_317
*1331 FILLER_0_2_349
*1332 FILLER_0_2_365
*1333 FILLER_0_2_37
*1334 FILLER_0_2_45
*1335 FILLER_0_2_55
*1336 FILLER_0_2_6
*1337 FILLER_0_2_71
*1338 FILLER_0_2_85
*1339 FILLER_0_30_104
*1340 FILLER_0_30_107
*1341 FILLER_0_30_16
*1342 FILLER_0_30_161
*1343 FILLER_0_30_169
*1344 FILLER_0_30_173
*1345 FILLER_0_30_187
*1346 FILLER_0_30_2
*1347 FILLER_0_30_203
*1348 FILLER_0_30_281
*1349 FILLER_0_30_285
*1350 FILLER_0_30_289
*1351 FILLER_0_30_297
*1352 FILLER_0_30_317
*1353 FILLER_0_30_32
*1354 FILLER_0_30_325
*1355 FILLER_0_30_34
*1356 FILLER_0_30_352
*1357 FILLER_0_30_360
*1358 FILLER_0_30_364
*1359 FILLER_0_30_37
*1360 FILLER_0_30_45
*1361 FILLER_0_30_47
*1362 FILLER_0_31_12
*1363 FILLER_0_31_133
*1364 FILLER_0_31_142
*1365 FILLER_0_31_146
*1366 FILLER_0_31_150
*1367 FILLER_0_31_181
*1368 FILLER_0_31_197
*1369 FILLER_0_31_205
*1370 FILLER_0_31_209
*1371 FILLER_0_31_218
*1372 FILLER_0_31_260
*1373 FILLER_0_31_276
*1374 FILLER_0_31_28
*1375 FILLER_0_31_282
*1376 FILLER_0_31_290
*1377 FILLER_0_31_341
*1378 FILLER_0_31_345
*1379 FILLER_0_31_349
*1380 FILLER_0_31_352
*1381 FILLER_0_31_360
*1382 FILLER_0_31_364
*1383 FILLER_0_31_72
*1384 FILLER_0_31_8
*1385 FILLER_0_31_90
*1386 FILLER_0_31_94
*1387 FILLER_0_31_96
*1388 FILLER_0_32_113
*1389 FILLER_0_32_115
*1390 FILLER_0_32_12
*1391 FILLER_0_32_170
*1392 FILLER_0_32_174
*1393 FILLER_0_32_177
*1394 FILLER_0_32_185
*1395 FILLER_0_32_202
*1396 FILLER_0_32_243
*1397 FILLER_0_32_247
*1398 FILLER_0_32_251
*1399 FILLER_0_32_275
*1400 FILLER_0_32_28
*1401 FILLER_0_32_283
*1402 FILLER_0_32_310
*1403 FILLER_0_32_314
*1404 FILLER_0_32_32
*1405 FILLER_0_32_34
*1406 FILLER_0_32_351
*1407 FILLER_0_32_359
*1408 FILLER_0_32_363
*1409 FILLER_0_32_365
*1410 FILLER_0_32_8
*1411 FILLER_0_33_117
*1412 FILLER_0_33_119
*1413 FILLER_0_33_12
*1414 FILLER_0_33_142
*1415 FILLER_0_33_146
*1416 FILLER_0_33_150
*1417 FILLER_0_33_167
*1418 FILLER_0_33_169
*1419 FILLER_0_33_212
*1420 FILLER_0_33_216
*1421 FILLER_0_33_220
*1422 FILLER_0_33_237
*1423 FILLER_0_33_241
*1424 FILLER_0_33_245
*1425 FILLER_0_33_262
*1426 FILLER_0_33_266
*1427 FILLER_0_33_28
*1428 FILLER_0_33_282
*1429 FILLER_0_33_288
*1430 FILLER_0_33_308
*1431 FILLER_0_33_312