*SPEF "ieee 1481-1999"
*DESIGN "sb_1__1_"
*DATE "11:11:11 Fri 11 11, 1111"
*VENDOR "OpenRCX"
*PROGRAM "Parallel Extraction"
*VERSION "1.0"
*DESIGN_FLOW "NAME_SCOPE LOCAL" "PIN_CAP NONE"
*DIVIDER /
*DELIMITER :
*BUS_DELIMITER []
*T_UNIT 1 NS
*C_UNIT 1 PF
*R_UNIT 1 OHM
*L_UNIT 1 HENRY

*NAME_MAP
*1 bottom_left_grid_right_width_0_height_0_subtile_0__pin_O_1_
*2 bottom_left_grid_right_width_0_height_0_subtile_0__pin_O_5_
*3 bottom_right_grid_left_width_0_height_0_subtile_0__pin_O_3_
*4 bottom_right_grid_left_width_0_height_0_subtile_0__pin_O_7_
*5 ccff_head
*6 ccff_tail
*7 chanx_left_in[0]
*8 chanx_left_in[10]
*9 chanx_left_in[11]
*10 chanx_left_in[12]
*11 chanx_left_in[13]
*12 chanx_left_in[14]
*13 chanx_left_in[15]
*14 chanx_left_in[16]
*15 chanx_left_in[17]
*16 chanx_left_in[18]
*17 chanx_left_in[19]
*18 chanx_left_in[1]
*19 chanx_left_in[2]
*20 chanx_left_in[3]
*21 chanx_left_in[4]
*22 chanx_left_in[5]
*23 chanx_left_in[6]
*24 chanx_left_in[7]
*25 chanx_left_in[8]
*26 chanx_left_in[9]
*27 net143
*28 chanx_left_out[10]
*29 chanx_left_out[11]
*30 net140
*31 chanx_left_out[13]
*32 chanx_left_out[14]
*33 chanx_left_out[15]
*34 net139
*35 chanx_left_out[17]
*36 chanx_left_out[18]
*37 chanx_left_out[19]
*38 chanx_left_out[1]
*39 chanx_left_out[2]
*40 chanx_left_out[3]
*41 net142
*42 chanx_left_out[5]
*43 chanx_left_out[6]
*44 chanx_left_out[7]
*45 net141
*46 chanx_left_out[9]
*47 chanx_right_in[0]
*48 chanx_right_in[10]
*49 chanx_right_in[11]
*50 chanx_right_in[12]
*51 chanx_right_in[13]
*52 chanx_right_in[14]
*53 chanx_right_in[15]
*54 chanx_right_in[16]
*55 chanx_right_in[17]
*56 chanx_right_in[18]
*57 chanx_right_in[19]
*58 chanx_right_in[1]
*59 chanx_right_in[2]
*60 chanx_right_in[3]
*61 chanx_right_in[4]
*62 chanx_right_in[5]
*63 chanx_right_in[6]
*64 chanx_right_in[7]
*65 chanx_right_in[8]
*66 chanx_right_in[9]
*67 net138
*68 chanx_right_out[10]
*69 chanx_right_out[11]
*70 net135
*71 chanx_right_out[13]
*72 chanx_right_out[14]
*73 chanx_right_out[15]
*74 net134
*75 chanx_right_out[17]
*76 chanx_right_out[18]
*77 chanx_right_out[19]
*78 chanx_right_out[1]
*79 chanx_right_out[2]
*80 chanx_right_out[3]
*81 net137
*82 chanx_right_out[5]
*83 chanx_right_out[6]
*84 chanx_right_out[7]
*85 net136
*86 chanx_right_out[9]
*87 chany_bottom_in[0]
*88 chany_bottom_in[10]
*89 chany_bottom_in[11]
*90 chany_bottom_in[12]
*91 chany_bottom_in[13]
*92 chany_bottom_in[14]
*93 chany_bottom_in[15]
*94 chany_bottom_in[16]
*95 chany_bottom_in[17]
*96 chany_bottom_in[18]
*97 chany_bottom_in[19]
*98 chany_bottom_in[1]
*99 chany_bottom_in[2]
*100 chany_bottom_in[3]
*101 chany_bottom_in[4]
*102 chany_bottom_in[5]
*103 chany_bottom_in[6]
*104 chany_bottom_in[7]
*105 chany_bottom_in[8]
*106 chany_bottom_in[9]
*107 net133
*108 chany_bottom_out[10]
*109 chany_bottom_out[11]
*110 net130
*111 chany_bottom_out[13]
*112 chany_bottom_out[14]
*113 chany_bottom_out[15]
*114 net129
*115 chany_bottom_out[17]
*116 chany_bottom_out[18]
*117 chany_bottom_out[19]
*118 chany_bottom_out[1]
*119 chany_bottom_out[2]
*120 chany_bottom_out[3]
*121 net132
*122 chany_bottom_out[5]
*123 chany_bottom_out[6]
*124 chany_bottom_out[7]
*125 net131
*126 chany_bottom_out[9]
*127 chany_top_in[0]
*128 chany_top_in[10]
*129 chany_top_in[11]
*130 chany_top_in[12]
*131 chany_top_in[13]
*132 chany_top_in[14]
*133 chany_top_in[15]
*134 chany_top_in[16]
*135 chany_top_in[17]
*136 chany_top_in[18]
*137 chany_top_in[19]
*138 chany_top_in[1]
*139 chany_top_in[2]
*140 chany_top_in[3]
*141 chany_top_in[4]
*142 chany_top_in[5]
*143 chany_top_in[6]
*144 chany_top_in[7]
*145 chany_top_in[8]
*146 chany_top_in[9]
*147 net128
*148 chany_top_out[10]
*149 chany_top_out[11]
*150 net125
*151 chany_top_out[13]
*152 chany_top_out[14]
*153 chany_top_out[15]
*154 net124
*155 chany_top_out[17]
*156 chany_top_out[18]
*157 chany_top_out[19]
*158 chany_top_out[1]
*159 chany_top_out[2]
*160 chany_top_out[3]
*161 net127
*162 chany_top_out[5]
*163 chany_top_out[6]
*164 chany_top_out[7]
*165 net126
*166 chany_top_out[9]
*167 left_bottom_grid_top_width_0_height_0_subtile_0__pin_O_0_
*168 left_bottom_grid_top_width_0_height_0_subtile_0__pin_O_4_
*169 left_top_grid_bottom_width_0_height_0_subtile_0__pin_O_2_
*170 left_top_grid_bottom_width_0_height_0_subtile_0__pin_O_6_
*171 pReset
*172 prog_clk
*173 right_bottom_grid_top_width_0_height_0_subtile_0__pin_O_0_
*174 right_bottom_grid_top_width_0_height_0_subtile_0__pin_O_4_
*175 right_top_grid_bottom_width_0_height_0_subtile_0__pin_O_2_
*176 right_top_grid_bottom_width_0_height_0_subtile_0__pin_O_6_
*177 top_left_grid_right_width_0_height_0_subtile_0__pin_O_1_
*178 top_left_grid_right_width_0_height_0_subtile_0__pin_O_5_
*179 top_right_grid_left_width_0_height_0_subtile_0__pin_O_3_
*180 top_right_grid_left_width_0_height_0_subtile_0__pin_O_7_
*183 _000_
*184 _001_
*185 _002_
*186 _003_
*187 _004_
*188 _005_
*189 _006_
*190 _007_
*191 _008_
*192 _009_
*193 _010_
*194 _011_
*195 _012_
*196 _013_
*197 _014_
*198 _015_
*199 _016_
*200 _017_
*201 _018_
*202 _019_
*203 _020_
*204 _021_
*205 _022_
*206 _023_
*207 _024_
*208 _025_
*209 _026_
*210 _027_
*211 _028_
*212 _029_
*213 _030_
*214 _031_
*215 _032_
*216 _033_
*217 _034_
*218 _035_
*219 _036_
*220 _037_
*221 _038_
*222 _039_
*223 _040_
*224 _041_
*225 _042_
*226 _043_
*227 _044_
*228 _045_
*229 _046_
*230 _047_
*231 _048_
*232 _049_
*233 _050_
*234 _051_
*235 _052_
*236 _053_
*237 _054_
*238 _055_
*239 _056_
*240 _057_
*241 _058_
*242 _059_
*243 _060_
*244 _061_
*245 _062_
*246 _063_
*247 _064_
*248 _065_
*249 _066_
*250 _067_
*251 _068_
*252 _069_
*253 _070_
*254 _071_
*255 _072_
*256 _073_
*257 _074_
*258 _075_
*259 _076_
*260 _077_
*261 _078_
*262 _079_
*263 _080_
*264 _081_
*265 _082_
*266 _083_
*267 _084_
*268 _085_
*269 _086_
*270 _087_
*271 _088_
*272 _089_
*273 _090_
*274 _091_
*275 _092_
*276 _093_
*277 _094_
*278 _095_
*279 _096_
*280 _097_
*281 _098_
*282 _099_
*283 _100_
*284 _101_
*285 _102_
*286 _103_
*287 _104_
*288 _105_
*289 _106_
*290 _107_
*291 _108_
*292 _109_
*293 _110_
*294 _111_
*295 _112_
*296 _113_
*297 _114_
*298 _115_
*299 _116_
*300 _117_
*301 _118_
*302 _119_
*303 _120_
*304 _121_
*305 _122_
*306 _123_
*307 _124_
*308 _125_
*309 _126_
*310 _127_
*311 _128_
*312 _129_
*313 _130_
*314 _131_
*315 _132_
*316 _133_
*317 _134_
*318 _135_
*319 _136_
*320 _137_
*321 _138_
*322 _139_
*323 _140_
*324 _141_
*325 _142_
*326 _143_
*327 _144_
*328 _145_
*329 _146_
*330 _147_
*331 _148_
*332 _149_
*333 _150_
*334 _151_
*335 _152_
*336 _153_
*337 _154_
*338 _155_
*339 _156_
*340 _157_
*341 _158_
*342 _159_
*343 _160_
*344 _161_
*345 _162_
*346 _163_
*347 _164_
*348 _165_
*349 _166_
*350 _167_
*351 _168_
*352 _169_
*353 _170_
*354 _171_
*355 _172_
*356 _173_
*357 _174_
*358 _175_
*359 _176_
*360 _177_
*361 clknet_0_prog_clk
*362 clknet_4_0_0_prog_clk
*363 clknet_4_10_0_prog_clk
*364 clknet_4_11_0_prog_clk
*365 clknet_4_12_0_prog_clk
*366 clknet_4_13_0_prog_clk
*367 clknet_4_14_0_prog_clk
*368 clknet_4_15_0_prog_clk
*369 clknet_4_1_0_prog_clk
*370 clknet_4_2_0_prog_clk
*371 clknet_4_3_0_prog_clk
*372 clknet_4_4_0_prog_clk
*373 clknet_4_5_0_prog_clk
*374 clknet_4_6_0_prog_clk
*375 clknet_4_7_0_prog_clk
*376 clknet_4_8_0_prog_clk
*377 clknet_4_9_0_prog_clk
*378 mem_bottom_track_1\.DFFR_0_\.D
*379 mem_bottom_track_1\.DFFR_0_\.Q
*380 mem_bottom_track_1\.DFFR_1_\.Q
*381 mem_bottom_track_1\.DFFR_2_\.Q
*382 mem_bottom_track_1\.DFFR_3_\.Q
*383 mem_bottom_track_1\.DFFR_4_\.Q
*384 mem_bottom_track_1\.DFFR_5_\.Q
*385 mem_bottom_track_1\.DFFR_6_\.Q
*386 mem_bottom_track_1\.DFFR_7_\.Q
*387 mem_bottom_track_17\.DFFR_0_\.D
*388 mem_bottom_track_17\.DFFR_0_\.Q
*389 mem_bottom_track_17\.DFFR_1_\.Q
*390 mem_bottom_track_17\.DFFR_2_\.Q
*391 mem_bottom_track_17\.DFFR_3_\.Q
*392 mem_bottom_track_17\.DFFR_4_\.Q
*393 mem_bottom_track_17\.DFFR_5_\.Q
*394 mem_bottom_track_17\.DFFR_6_\.Q
*395 mem_bottom_track_17\.DFFR_7_\.Q
*396 mem_bottom_track_25\.DFFR_0_\.Q
*397 mem_bottom_track_25\.DFFR_1_\.Q
*398 mem_bottom_track_25\.DFFR_2_\.Q
*399 mem_bottom_track_25\.DFFR_3_\.Q
*400 mem_bottom_track_25\.DFFR_4_\.Q
*401 mem_bottom_track_25\.DFFR_5_\.Q
*402 mem_bottom_track_25\.DFFR_6_\.Q
*403 mem_bottom_track_25\.DFFR_7_\.Q
*404 mem_bottom_track_33\.DFFR_0_\.Q
*405 mem_bottom_track_33\.DFFR_1_\.Q
*406 mem_bottom_track_33\.DFFR_2_\.Q
*407 mem_bottom_track_33\.DFFR_3_\.Q
*408 mem_bottom_track_33\.DFFR_4_\.Q
*409 mem_bottom_track_33\.DFFR_5_\.Q
*410 mem_bottom_track_33\.DFFR_6_\.Q
*411 mem_bottom_track_33\.DFFR_7_\.Q
*412 mem_bottom_track_9\.DFFR_0_\.Q
*413 mem_bottom_track_9\.DFFR_1_\.Q
*414 mem_bottom_track_9\.DFFR_2_\.Q
*415 mem_bottom_track_9\.DFFR_3_\.Q
*416 mem_bottom_track_9\.DFFR_4_\.Q
*417 mem_bottom_track_9\.DFFR_5_\.Q
*418 mem_bottom_track_9\.DFFR_6_\.Q
*419 mem_left_track_1\.DFFR_0_\.Q
*420 mem_left_track_1\.DFFR_1_\.Q
*421 mem_left_track_1\.DFFR_2_\.Q
*422 mem_left_track_1\.DFFR_3_\.Q
*423 mem_left_track_1\.DFFR_4_\.Q
*424 mem_left_track_1\.DFFR_5_\.Q
*425 mem_left_track_1\.DFFR_6_\.Q
*426 mem_left_track_1\.DFFR_7_\.Q
*427 mem_left_track_17\.DFFR_0_\.D
*428 mem_left_track_17\.DFFR_0_\.Q
*429 mem_left_track_17\.DFFR_1_\.Q
*430 mem_left_track_17\.DFFR_2_\.Q
*431 mem_left_track_17\.DFFR_3_\.Q
*432 mem_left_track_17\.DFFR_4_\.Q
*433 mem_left_track_17\.DFFR_5_\.Q
*434 mem_left_track_17\.DFFR_6_\.Q
*435 mem_left_track_17\.DFFR_7_\.Q
*436 mem_left_track_25\.DFFR_0_\.Q
*437 mem_left_track_25\.DFFR_1_\.Q
*438 mem_left_track_25\.DFFR_2_\.Q
*439 mem_left_track_25\.DFFR_3_\.Q
*440 mem_left_track_25\.DFFR_4_\.Q
*441 mem_left_track_25\.DFFR_5_\.Q
*442 mem_left_track_25\.DFFR_6_\.Q
*443 mem_left_track_25\.DFFR_7_\.Q
*444 mem_left_track_33\.DFFR_0_\.Q
*445 mem_left_track_33\.DFFR_1_\.Q
*446 mem_left_track_33\.DFFR_2_\.Q
*447 mem_left_track_33\.DFFR_3_\.Q
*448 mem_left_track_33\.DFFR_4_\.Q
*449 mem_left_track_33\.DFFR_5_\.Q
*450 mem_left_track_33\.DFFR_6_\.Q
*451 mem_left_track_9\.DFFR_0_\.Q
*452 mem_left_track_9\.DFFR_1_\.Q
*453 mem_left_track_9\.DFFR_2_\.Q
*454 mem_left_track_9\.DFFR_3_\.Q
*455 mem_left_track_9\.DFFR_4_\.Q
*456 mem_left_track_9\.DFFR_5_\.Q
*457 mem_left_track_9\.DFFR_6_\.Q
*458 mem_right_track_0\.DFFR_0_\.D
*459 mem_right_track_0\.DFFR_0_\.Q
*460 mem_right_track_0\.DFFR_1_\.Q
*461 mem_right_track_0\.DFFR_2_\.Q
*462 mem_right_track_0\.DFFR_3_\.Q
*463 mem_right_track_0\.DFFR_4_\.Q
*464 mem_right_track_0\.DFFR_5_\.Q
*465 mem_right_track_0\.DFFR_6_\.Q
*466 mem_right_track_0\.DFFR_7_\.Q
*467 mem_right_track_16\.DFFR_0_\.D
*468 mem_right_track_16\.DFFR_0_\.Q
*469 mem_right_track_16\.DFFR_1_\.Q
*470 mem_right_track_16\.DFFR_2_\.Q
*471 mem_right_track_16\.DFFR_3_\.Q
*472 mem_right_track_16\.DFFR_4_\.Q
*473 mem_right_track_16\.DFFR_5_\.Q
*474 mem_right_track_16\.DFFR_6_\.Q
*475 mem_right_track_16\.DFFR_7_\.Q
*476 mem_right_track_24\.DFFR_0_\.Q
*477 mem_right_track_24\.DFFR_1_\.Q
*478 mem_right_track_24\.DFFR_2_\.Q
*479 mem_right_track_24\.DFFR_3_\.Q
*480 mem_right_track_24\.DFFR_4_\.Q
*481 mem_right_track_24\.DFFR_5_\.Q
*482 mem_right_track_24\.DFFR_6_\.Q
*483 mem_right_track_24\.DFFR_7_\.Q
*484 mem_right_track_32\.DFFR_0_\.Q
*485 mem_right_track_32\.DFFR_1_\.Q
*486 mem_right_track_32\.DFFR_2_\.Q
*487 mem_right_track_32\.DFFR_3_\.Q
*488 mem_right_track_32\.DFFR_4_\.Q
*489 mem_right_track_32\.DFFR_5_\.Q
*490 mem_right_track_32\.DFFR_6_\.Q
*491 mem_right_track_8\.DFFR_0_\.Q
*492 mem_right_track_8\.DFFR_1_\.Q
*493 mem_right_track_8\.DFFR_2_\.Q
*494 mem_right_track_8\.DFFR_3_\.Q
*495 mem_right_track_8\.DFFR_4_\.Q
*496 mem_right_track_8\.DFFR_5_\.Q
*497 mem_right_track_8\.DFFR_6_\.Q
*498 mem_top_track_0\.DFFR_0_\.Q
*499 mem_top_track_0\.DFFR_1_\.Q
*500 mem_top_track_0\.DFFR_2_\.Q
*501 mem_top_track_0\.DFFR_3_\.Q
*502 mem_top_track_0\.DFFR_4_\.Q
*503 mem_top_track_0\.DFFR_5_\.Q
*504 mem_top_track_0\.DFFR_6_\.Q
*505 mem_top_track_0\.DFFR_7_\.Q
*506 mem_top_track_16\.DFFR_0_\.D
*507 mem_top_track_16\.DFFR_0_\.Q
*508 mem_top_track_16\.DFFR_1_\.Q
*509 mem_top_track_16\.DFFR_2_\.Q
*510 mem_top_track_16\.DFFR_3_\.Q
*511 mem_top_track_16\.DFFR_4_\.Q
*512 mem_top_track_16\.DFFR_5_\.Q
*513 mem_top_track_16\.DFFR_6_\.Q
*514 mem_top_track_16\.DFFR_7_\.Q
*515 mem_top_track_24\.DFFR_0_\.Q
*516 mem_top_track_24\.DFFR_1_\.Q
*517 mem_top_track_24\.DFFR_2_\.Q
*518 mem_top_track_24\.DFFR_3_\.Q
*519 mem_top_track_24\.DFFR_4_\.Q
*520 mem_top_track_24\.DFFR_5_\.Q
*521 mem_top_track_24\.DFFR_6_\.Q
*522 mem_top_track_24\.DFFR_7_\.Q
*523 mem_top_track_32\.DFFR_0_\.Q
*524 mem_top_track_32\.DFFR_1_\.Q
*525 mem_top_track_32\.DFFR_2_\.Q
*526 mem_top_track_32\.DFFR_3_\.Q
*527 mem_top_track_32\.DFFR_4_\.Q
*528 mem_top_track_32\.DFFR_5_\.Q
*529 mem_top_track_32\.DFFR_6_\.Q
*530 mem_top_track_8\.DFFR_0_\.Q
*531 mem_top_track_8\.DFFR_1_\.Q
*532 mem_top_track_8\.DFFR_2_\.Q
*533 mem_top_track_8\.DFFR_3_\.Q
*534 mem_top_track_8\.DFFR_4_\.Q
*535 mem_top_track_8\.DFFR_5_\.Q
*536 mem_top_track_8\.DFFR_6_\.Q
*537 net1
*538 net10
*539 net100
*540 net101
*541 net102
*542 net103
*543 net104
*544 net105
*545 net106
*546 net107
*547 net108
*548 net109
*549 net11
*550 net110
*551 net111
*552 net112
*553 net113
*554 net114
*555 net115
*556 net116
*557 net117
*558 net118
*559 net119
*560 net12
*561 net120
*562 net121
*563 net122
*564 net123
*565 net13
*566 net14
*567 net144
*568 net145
*569 net146
*570 net147
*571 net148
*572 net149
*573 net15
*574 net150
*575 net151
*576 net152
*577 net153
*578 net154
*579 net155
*580 net156
*581 net157
*582 net158
*583 net159
*584 net16
*585 net160
*586 net161
*587 net162
*588 net163
*589 net164
*590 net165
*591 net166
*592 net167
*593 net168
*594 net169
*595 net17
*596 net170
*597 net171
*598 net172
*599 net173
*600 net174
*601 net175
*602 net176
*603 net177
*604 net178
*605 net179
*606 net18
*607 net180
*608 net181
*609 net182
*610 net183
*611 net184
*612 net185
*613 net186
*614 net187
*615 net188
*616 net189
*617 net19
*618 net190
*619 net191
*620 net192
*621 net193
*622 net194
*623 net195
*624 net196
*625 net197
*626 net198
*627 net199
*628 net2
*629 net20
*630 net200
*631 net201
*632 net202
*633 net203
*634 net204
*635 net205
*636 net206
*637 net207
*638 net208
*639 net209
*640 net21
*641 net210
*642 net211
*643 net212
*644 net213
*645 net214
*646 net215
*647 net216
*648 net217
*649 net218
*650 net219
*651 net22
*652 net220
*653 net221
*654 net222
*655 net223
*656 net224
*657 net225
*658 net226
*659 net227
*660 net228
*661 net229
*662 net23
*663 net230
*664 net231
*665 net232
*666 net233
*667 net234
*668 net235
*669 net236
*670 net237
*671 net238
*672 net239
*673 net24
*674 net240
*675 net241
*676 net242
*677 net243
*678 net244
*679 net245
*680 net246
*681 net247
*682 net248
*683 net249
*684 net25
*685 net250
*686 net251
*687 net252
*688 net253
*689 net254
*690 net255
*691 net256
*692 net257
*693 net258
*694 net259
*695 net26
*696 net260
*697 net261
*698 net262
*699 net263
*700 net264
*701 net265
*702 net266
*703 net267
*704 net268
*705 net269
*706 net27
*707 net270
*708 net271
*709 net272
*710 net273
*711 net274
*712 net275
*713 net276
*714 net277
*715 net278
*716 net279
*717 net28
*718 net280
*719 net281
*720 net282
*721 net283
*722 net284
*723 net285
*724 net286
*725 net287
*726 net288
*727 net289
*728 net29
*729 net290
*730 net291
*731 net292
*732 net293
*733 net294
*734 net295
*735 net296
*736 net297
*737 net298
*738 net299
*739 net3
*740 net30
*741 net300
*742 net301
*743 net31
*744 net32
*745 net33
*746 net34
*747 net35
*748 net36
*749 net37
*750 net38
*751 net39
*752 net4
*753 net40
*754 net41
*755 net42
*756 net43
*757 net44
*758 net45
*759 net46
*760 net47
*761 net48
*762 net49
*763 net5
*764 net50
*765 net51
*766 net52
*767 net53
*768 net54
*769 net55
*770 net56
*771 net57
*772 net58
*773 net59
*774 net6
*775 net60
*776 net61
*777 net62
*778 net63
*779 net64
*780 net65
*781 net66
*782 net67
*783 net68
*784 net69
*785 net7
*786 net70
*787 net71
*788 net72
*789 net73
*790 net74
*791 net75
*792 net76
*793 net77
*794 net78
*795 net79
*796 net8
*797 net80
*798 net81
*799 net82
*800 net83
*801 net84
*802 net85
*803 net86
*804 net87
*805 net88
*806 net89
*807 net9
*808 net90
*809 net91
*810 net92
*811 net93
*812 net94
*813 net95
*814 net96
*815 net97
*816 net98
*817 net99
*818 ANTENNA__180__I
*819 ANTENNA__181__I
*820 ANTENNA__182__I
*821 ANTENNA__183__I
*822 ANTENNA__184__I
*823 ANTENNA__185__I
*824 ANTENNA__186__I
*825 ANTENNA__187__I
*826 ANTENNA__188__I
*827 ANTENNA__189__I
*828 ANTENNA__190__I
*829 ANTENNA__191__I
*830 ANTENNA__202__I
*831 ANTENNA__213__I
*832 ANTENNA__224__I
*833 ANTENNA__225__I
*834 ANTENNA__226__I
*835 ANTENNA__227__I
*836 ANTENNA__228__I
*837 ANTENNA__229__I
*838 ANTENNA__230__I
*839 ANTENNA__231__I
*840 ANTENNA__232__I
*841 ANTENNA__233__I
*842 ANTENNA__234__I
*843 ANTENNA__235__I
*844 ANTENNA__246__I
*845 ANTENNA__257__I
*846 ANTENNA__268__I
*847 ANTENNA__279__I
*848 ANTENNA__346__I
*849 ANTENNA__347__I
*850 ANTENNA__348__I
*851 ANTENNA__349__I
*852 ANTENNA__350__I
*853 ANTENNA__351__I
*854 ANTENNA__352__I
*855 ANTENNA__353__I
*856 ANTENNA__354__I
*857 ANTENNA__355__I
*858 ANTENNA__356__CLK
*859 ANTENNA__357__CLK
*860 ANTENNA__358__CLK
*861 ANTENNA__359__CLK
*862 ANTENNA__360__CLK
*863 ANTENNA__361__CLK
*864 ANTENNA__362__CLK
*865 ANTENNA__363__CLK
*866 ANTENNA__368__CLK
*867 ANTENNA__369__CLK
*868 ANTENNA__370__CLK
*869 ANTENNA__371__CLK
*870 ANTENNA__388__CLK
*871 ANTENNA__389__CLK
*872 ANTENNA__391__CLK
*873 ANTENNA__392__CLK
*874 ANTENNA__393__CLK
*875 ANTENNA__394__CLK
*876 ANTENNA__395__D
*877 ANTENNA__397__CLK
*878 ANTENNA__399__CLK
*879 ANTENNA__400__CLK
*880 ANTENNA__401__CLK
*881 ANTENNA__402__CLK
*882 ANTENNA__403__CLK
*883 ANTENNA__404__CLK
*884 ANTENNA__405__CLK
*885 ANTENNA__421__CLK
*886 ANTENNA__423__CLK
*887 ANTENNA__460__CLK
*888 ANTENNA__461__CLK
*889 ANTENNA__468__CLK
*890 ANTENNA__469__CLK
*891 ANTENNA__470__CLK
*892 ANTENNA__471__CLK
*893 ANTENNA__472__CLK
*894 ANTENNA__473__CLK
*895 ANTENNA__474__CLK
*896 ANTENNA__475__CLK
*897 ANTENNA__476__CLK
*898 ANTENNA__477__CLK
*899 ANTENNA__483__D
*900 ANTENNA__508__CLK
*901 ANTENNA__513__CLK
*902 ANTENNA__514__CLK
*903 ANTENNA__567__I
*904 ANTENNA__568__I
*905 ANTENNA__575__I
*906 ANTENNA__577__I
*907 ANTENNA__578__I
*908 ANTENNA_clkbuf_0_prog_clk_I
*909 ANTENNA_clkbuf_4_0_0_prog_clk_I
*910 ANTENNA_clkbuf_4_10_0_prog_clk_I
*911 ANTENNA_clkbuf_4_11_0_prog_clk_I
*912 ANTENNA_clkbuf_4_12_0_prog_clk_I
*913 ANTENNA_clkbuf_4_13_0_prog_clk_I
*914 ANTENNA_clkbuf_4_14_0_prog_clk_I
*915 ANTENNA_clkbuf_4_15_0_prog_clk_I
*916 ANTENNA_clkbuf_4_1_0_prog_clk_I
*917 ANTENNA_clkbuf_4_2_0_prog_clk_I
*918 ANTENNA_clkbuf_4_3_0_prog_clk_I
*919 ANTENNA_clkbuf_4_4_0_prog_clk_I
*920 ANTENNA_clkbuf_4_5_0_prog_clk_I
*921 ANTENNA_clkbuf_4_6_0_prog_clk_I
*922 ANTENNA_clkbuf_4_7_0_prog_clk_I
*923 ANTENNA_clkbuf_4_8_0_prog_clk_I
*924 ANTENNA_clkbuf_4_9_0_prog_clk_I
*925 ANTENNA_input10_I
*926 ANTENNA_input11_I
*927 ANTENNA_input12_I
*928 ANTENNA_input13_I
*929 ANTENNA_input14_I
*930 ANTENNA_input15_I
*931 ANTENNA_input16_I
*932 ANTENNA_input17_I
*933 ANTENNA_input18_I
*934 ANTENNA_input19_I
*935 ANTENNA_input1_I
*936 ANTENNA_input20_I
*937 ANTENNA_input21_I
*938 ANTENNA_input22_I
*939 ANTENNA_input23_I
*940 ANTENNA_input24_I
*941 ANTENNA_input25_I
*942 ANTENNA_input26_I
*943 ANTENNA_input27_I
*944 ANTENNA_input28_I
*945 ANTENNA_input29_I
*946 ANTENNA_input2_I
*947 ANTENNA_input30_I
*948 ANTENNA_input31_I
*949 ANTENNA_input32_I
*950 ANTENNA_input33_I
*951 ANTENNA_input34_I
*952 ANTENNA_input35_I
*953 ANTENNA_input36_I
*954 ANTENNA_input37_I
*955 ANTENNA_input38_I
*956 ANTENNA_input39_I
*957 ANTENNA_input3_I
*958 ANTENNA_input40_I
*959 ANTENNA_input41_I
*960 ANTENNA_input42_I
*961 ANTENNA_input43_I
*962 ANTENNA_input44_I
*963 ANTENNA_input45_I
*964 ANTENNA_input46_I
*965 ANTENNA_input47_I
*966 ANTENNA_input48_I
*967 ANTENNA_input49_I
*968 ANTENNA_input4_I
*969 ANTENNA_input50_I
*970 ANTENNA_input51_I
*971 ANTENNA_input52_I
*972 ANTENNA_input53_I
*973 ANTENNA_input54_I
*974 ANTENNA_input55_I
*975 ANTENNA_input56_I
*976 ANTENNA_input57_I
*977 ANTENNA_input58_I
*978 ANTENNA_input59_I
*979 ANTENNA_input5_I
*980 ANTENNA_input60_I
*981 ANTENNA_input61_I
*982 ANTENNA_input62_I
*983 ANTENNA_input6_I
*984 ANTENNA_input7_I
*985 ANTENNA_input8_I
*986 ANTENNA_input9_I
*987 ANTENNA_output100_I
*988 ANTENNA_output104_I
*989 ANTENNA_output105_I
*990 ANTENNA_output111_I
*991 ANTENNA_output123_I
*992 ANTENNA_output98_I
*993 ANTENNA_output99_I
*994 FILLER_0_0_114
*995 FILLER_0_0_12
*996 FILLER_0_0_122
*997 FILLER_0_0_138
*998 FILLER_0_0_156
*999 FILLER_0_0_16
*1000 FILLER_0_0_172
*1001 FILLER_0_0_174
*1002 FILLER_0_0_191
*1003 FILLER_0_0_197
*1004 FILLER_0_0_206
*1005 FILLER_0_0_210
*1006 FILLER_0_0_221
*1007 FILLER_0_0_237
*1008 FILLER_0_0_240
*1009 FILLER_0_0_251
*1010 FILLER_0_0_265
*1011 FILLER_0_0_271
*1012 FILLER_0_0_274
*1013 FILLER_0_0_276
*1014 FILLER_0_0_287
*1015 FILLER_0_0_303
*1016 FILLER_0_0_305
*1017 FILLER_0_0_312
*1018 FILLER_0_0_32
*1019 FILLER_0_0_323
*1020 FILLER_0_0_339
*1021 FILLER_0_0_352
*1022 FILLER_0_0_36
*1023 FILLER_0_0_366
*1024 FILLER_0_0_376
*1025 FILLER_0_0_394
*1026 FILLER_0_0_44
*1027 FILLER_0_0_54
*1028 FILLER_0_0_70
*1029 FILLER_0_10_101
*1030 FILLER_0_10_107
*1031 FILLER_0_10_171
*1032 FILLER_0_10_177
*1033 FILLER_0_10_194
*1034 FILLER_0_10_2
*1035 FILLER_0_10_210
*1036 FILLER_0_10_228
*1037 FILLER_0_10_23
*1038 FILLER_0_10_244
*1039 FILLER_0_10_247
*1040 FILLER_0_10_264
*1041 FILLER_0_10_280
*1042 FILLER_0_10_284
*1043 FILLER_0_10_31
*1044 FILLER_0_10_313
*1045 FILLER_0_10_317
*1046 FILLER_0_10_325
*1047 FILLER_0_10_342
*1048 FILLER_0_10_358
*1049 FILLER_0_10_362
*1050 FILLER_0_10_37
*1051 FILLER_0_10_380
*1052 FILLER_0_10_384
*1053 FILLER_0_10_387
*1054 FILLER_0_10_398
*1055 FILLER_0_10_41
*1056 FILLER_0_10_43
*1057 FILLER_0_10_6
*1058 FILLER_0_10_60
*1059 FILLER_0_10_68
*1060 FILLER_0_10_85
*1061 FILLER_0_11_110
*1062 FILLER_0_11_126
*1063 FILLER_0_11_134
*1064 FILLER_0_11_138
*1065 FILLER_0_11_142
*1066 FILLER_0_11_162
*1067 FILLER_0_11_178
*1068 FILLER_0_11_186
*1069 FILLER_0_11_190
*1070 FILLER_0_11_208
*1071 FILLER_0_11_212
*1072 FILLER_0_11_220
*1073 FILLER_0_11_240
*1074 FILLER_0_11_248
*1075 FILLER_0_11_265
*1076 FILLER_0_11_273
*1077 FILLER_0_11_277
*1078 FILLER_0_11_279
*1079 FILLER_0_11_282
*1080 FILLER_0_11_298
*1081 FILLER_0_11_316
*1082 FILLER_0_11_318
*1083 FILLER_0_11_335
*1084 FILLER_0_11_343
*1085 FILLER_0_11_347
*1086 FILLER_0_11_349
*1087 FILLER_0_11_352
*1088 FILLER_0_11_36
*1089 FILLER_0_11_360
*1090 FILLER_0_11_377
*1091 FILLER_0_11_385
*1092 FILLER_0_11_40
*1093 FILLER_0_11_48
*1094 FILLER_0_11_65
*1095 FILLER_0_11_69
*1096 FILLER_0_11_72
*1097 FILLER_0_11_88
*1098 FILLER_0_11_92
*1099 FILLER_0_12_102
*1100 FILLER_0_12_104
*1101 FILLER_0_12_107
*1102 FILLER_0_12_123
*1103 FILLER_0_12_141
*1104 FILLER_0_12_157
*1105 FILLER_0_12_177
*1106 FILLER_0_12_185
*1107 FILLER_0_12_2
*1108 FILLER_0_12_203
*1109 FILLER_0_12_219
*1110 FILLER_0_12_23
*1111 FILLER_0_12_237
*1112 FILLER_0_12_247
*1113 FILLER_0_12_255
*1114 FILLER_0_12_273
*1115 FILLER_0_12_281
*1116 FILLER_0_12_304
*1117 FILLER_0_12_306
*1118 FILLER_0_12_31
*1119 FILLER_0_12_313
*1120 FILLER_0_12_317
*1121 FILLER_0_12_325
*1122 FILLER_0_12_343
*1123 FILLER_0_12_351
*1124 FILLER_0_12_368
*1125 FILLER_0_12_37
*1126 FILLER_0_12_370
*1127 FILLER_0_12_381
*1128 FILLER_0_12_387
*1129 FILLER_0_12_398
*1130 FILLER_0_12_41
*1131 FILLER_0_12_43
*1132 FILLER_0_12_6
*1133 FILLER_0_12_60
*1134 FILLER_0_12_76
*1135 FILLER_0_12_94
*1136 FILLER_0_13_115
*1137 FILLER_0_13_123
*1138 FILLER_0_13_142
*1139 FILLER_0_13_158
*1140 FILLER_0_13_192
*1141 FILLER_0_13_2
*1142 FILLER_0_13_200
*1143 FILLER_0_13_212
*1144 FILLER_0_13_244
*1145 FILLER_0_13_248
*1146 FILLER_0_13_265
*1147 FILLER_0_13_273
*1148 FILLER_0_13_294
*1149 FILLER_0_13_301
*1150 FILLER_0_13_309
*1151 FILLER_0_13_326
*1152 FILLER_0_13_336
*1153 FILLER_0_13_344
*1154 FILLER_0_13_348
*1155 FILLER_0_13_352
*1156 FILLER_0_13_360
*1157 FILLER_0_13_364
*1158 FILLER_0_13_372
*1159 FILLER_0_13_376
*1160 FILLER_0_13_378
*1161 FILLER_0_13_397
*1162 FILLER_0_13_4
*1163 FILLER_0_13_401
*1164 FILLER_0_13_61
*1165 FILLER_0_13_65
*1166 FILLER_0_13_69
*1167 FILLER_0_13_72
*1168 FILLER_0_13_76
*1169 FILLER_0_13_92
*1170 FILLER_0_13_96
*1171 FILLER_0_13_98
*1172 FILLER_0_14_10
*1173 FILLER_0_14_104
*1174 FILLER_0_14_107
*1175 FILLER_0_14_115
*1176 FILLER_0_14_135
*1177 FILLER_0_14_14
*1178 FILLER_0_14_151
*1179 FILLER_0_14_169
*1180 FILLER_0_14_173
*1181 FILLER_0_14_177
*1182 FILLER_0_14_18
*1183 FILLER_0_14_193
*1184 FILLER_0_14_197
*1185 FILLER_0_14_199
*1186 FILLER_0_14_2
*1187 FILLER_0_14_234
*1188 FILLER_0_14_242
*1189 FILLER_0_14_244
*1190 FILLER_0_14_247
*1191 FILLER_0_14_251
*1192 FILLER_0_14_287
*1193 FILLER_0_14_295
*1194 FILLER_0_14_312
*1195 FILLER_0_14_314
*1196 FILLER_0_14_317
*1197 FILLER_0_14_325
*1198 FILLER_0_14_350
*1199 FILLER_0_14_366
*1200 FILLER_0_14_383
*1201 FILLER_0_14_401
*1202 FILLER_0_14_71
*1203 FILLER_0_14_75
*1204 FILLER_0_14_79
*1205 FILLER_0_14_96
*1206 FILLER_0_15_106
*1207 FILLER_0_15_114
*1208 FILLER_0_15_131
*1209 FILLER_0_15_139
*1210 FILLER_0_15_158
*1211 FILLER_0_15_166
*1212 FILLER_0_15_202
*1213 FILLER_0_15_212
*1214 FILLER_0_15_220
*1215 FILLER_0_15_24
*1216 FILLER_0_15_243
*1217 FILLER_0_15_278
*1218 FILLER_0_15_316
*1219 FILLER_0_15_32
*1220 FILLER_0_15_324
*1221 FILLER_0_15_328
*1222 FILLER_0_15_345
*1223 FILLER_0_15_349
*1224 FILLER_0_15_67
*1225 FILLER_0_15_69
*1226 FILLER_0_15_78
*1227 FILLER_0_15_82
*1228 FILLER_0_15_86
*1229 FILLER_0_16_100
*1230 FILLER_0_16_102
*1231 FILLER_0_16_107
*1232 FILLER_0_16_111
*1233 FILLER_0_16_115
*1234 FILLER_0_16_159
*1235 FILLER_0_16_2
*1236 FILLER_0_16_26
*1237 FILLER_0_16_34
*1238 FILLER_0_16_37
*1239 FILLER_0_16_387
*1240 FILLER_0_16_41
*1241 FILLER_0_16_43
*1242 FILLER_0_16_96
*1243 FILLER_0_17_106
*1244 FILLER_0_17_113
*1245 FILLER_0_17_131
*1246 FILLER_0_17_139
*1247 FILLER_0_17_142
*1248 FILLER_0_17_144
*1249 FILLER_0_17_167
*1250 FILLER_0_17_175
*1251 FILLER_0_17_386
*1252 FILLER_0_18_102
*1253 FILLER_0_18_104
*1254 FILLER_0_18_107
*1255 FILLER_0_18_114
*1256 FILLER_0_18_118
*1257 FILLER_0_18_122
*1258 FILLER_0_18_173
*1259 FILLER_0_18_177
*1260 FILLER_0_18_2
*1261 FILLER_0_18_231
*1262 FILLER_0_18_238
*1263 FILLER_0_18_242
*1264 FILLER_0_18_244
*1265 FILLER_0_18_247
*1266 FILLER_0_18_251
*1267 FILLER_0_18_253
*1268 FILLER_0_18_26
*1269 FILLER_0_18_30
*1270 FILLER_0_18_312
*1271 FILLER_0_18_314
*1272 FILLER_0_18_317
*1273 FILLER_0_18_32
*1274 FILLER_0_18_353
*1275 FILLER_0_18_361
*1276 FILLER_0_18_363
*1277 FILLER_0_18_37
*1278 FILLER_0_18_380
*1279 FILLER_0_18_382
*1280 FILLER_0_18_387
*1281 FILLER_0_18_39
*1282 FILLER_0_19_142
*1283 FILLER_0_19_152
*1284 FILLER_0_19_193
*1285 FILLER_0_19_207
*1286 FILLER_0_19_209
*1287 FILLER_0_19_276
*1288 FILLER_0_19_316
*1289 FILLER_0_19_346
*1290 FILLER_0_19_386
*1291 FILLER_0_1_107
*1292 FILLER_0_1_111
*1293 FILLER_0_1_12
*1294 FILLER_0_1_131
*1295 FILLER_0_1_135
*1296 FILLER_0_1_137
*1297 FILLER_0_1_148
*1298 FILLER_0_1_150
*1299 FILLER_0_1_155
*1300 FILLER_0_1_169
*1301 FILLER_0_1_173
*1302 FILLER_0_1_185
*1303 FILLER_0_1_201
*1304 FILLER_0_1_208
*1305 FILLER_0_1_212
*1306 FILLER_0_1_220
*1307 FILLER_0_1_233
*1308 FILLER_0_1_243
*1309 FILLER_0_1_251
*1310 FILLER_0_1_255
*1311 FILLER_0_1_277
*1312 FILLER_0_1_279
*1313 FILLER_0_1_294
*1314 FILLER_0_1_301
*1315 FILLER_0_1_305
*1316 FILLER_0_1_313
*1317 FILLER_0_1_317
*1318 FILLER_0_1_329
*1319 FILLER_0_1_333
*1320 FILLER_0_1_349
*1321 FILLER_0_1_358
*1322 FILLER_0_1_360
*1323 FILLER_0_1_367
*1324 FILLER_0_1_389
*1325 FILLER_0_1_44
*1326 FILLER_0_1_52
*1327 FILLER_0_1_56
*1328 FILLER_0_1_58
*1329 FILLER_0_1_69
*1330 FILLER_0_1_72
*1331 FILLER_0_1_8
*1332 FILLER_0_1_83
*1333 FILLER_0_1_87
*1334 FILLER_0_1_89
*1335 FILLER_0_1_92
*1336 FILLER_0_1_94
*1337 FILLER_0_20_102
*1338 FILLER_0_20_104
*1339 FILLER_0_20_119
*1340 FILLER_0_20_169
*1341 FILLER_0_20_173
*1342 FILLER_0_20_177
*1343 FILLER_0_20_184
*1344 FILLER_0_20_186
*1345 FILLER_0_20_2
*1346 FILLER_0_20_221
*1347 FILLER_0_20_229
*1348 FILLER_0_20_233
*1349 FILLER_0_20_235
*1350 FILLER_0_20_238
*1351 FILLER_0_20_242
*1352 FILLER_0_20_244
*1353 FILLER_0_20_247
*1354 FILLER_0_20_26
*1355 FILLER_0_20_314
*1356 FILLER_0_20_317
*1357 FILLER_0_20_34
*1358 FILLER_0_20_345
*1359 FILLER_0_20_353
*1360 FILLER_0_20_384
*1361 FILLER_0_20_387
*1362 FILLER_0_20_53
*1363 FILLER_0_20_55
*1364 FILLER_0_20_58
*1365 FILLER_0_21_168
*1366 FILLER_0_21_172
*1367 FILLER_0_21_2
*1368 FILLER_0_21_218
*1369 FILLER_0_21_220
*1370 FILLER_0_21_255
*1371 FILLER_0_21_263
*1372 FILLER_0_21_294
*1373 FILLER_0_21_340
*1374 FILLER_0_21_352
*1375 FILLER_0_21_360
*1376 FILLER_0_21_377
*1377 FILLER_0_21_381
*1378 FILLER_0_21_383
*1379 FILLER_0_21_39
*1380 FILLER_0_21_4
*1381 FILLER_0_21_43
*1382 FILLER_0_22_2
*1383 FILLER_0_22_203
*1384 FILLER_0_22_205
*1385 FILLER_0_22_240
*1386 FILLER_0_22_242
*1387 FILLER_0_22_26
*1388 FILLER_0_22_281
*1389 FILLER_0_22_285
*1390 FILLER_0_22_287
*1391 FILLER_0_22_312
*1392 FILLER_0_22_314
*1393 FILLER_0_22_34
*1394 FILLER_0_22_395
*1395 FILLER_0_23_130
*1396 FILLER_0_23_132
*1397 FILLER_0_23_139
*1398 FILLER_0_23_168
*1399 FILLER_0_23_2
*1400 FILLER_0_23_212
*1401 FILLER_0_23_37
*1402 FILLER_0_23_72
*1403 FILLER_0_23_79
*1404 FILLER_0_23_83
*1405 FILLER_0_24_139
*1406 FILLER_0_24_2
*1407 FILLER_0_24_26
*1408 FILLER_0_24_34
*1409 FILLER_0_24_395
*1410 FILLER_0_24_399
*1411 FILLER_0_25_102
*1412 FILLER_0_25_104
*1413 FILLER_0_25_139
*1414 FILLER_0_25_148
*1415 FILLER_0_25_152
*1416 FILLER_0_25_156
*1417 FILLER_0_25_2
*1418 FILLER_0_25_203
*1419 FILLER_0_25_207
*1420 FILLER_0_25_209
*1421 FILLER_0_25_212
*1422 FILLER_0_25_276
*1423 FILLER_0_25_288
*1424 FILLER_0_25_292
*1425 FILLER_0_25_347
*1426 FILLER_0_25_349
*1427 FILLER_0_25_358
*1428 FILLER_0_25_362
*1429 FILLER_0_25_397
*1430 FILLER_0_25_401
*1431 FILLER_0_25_69
*1432 FILLER_0_25_72
*1433 FILLER_0_26_103
*1434 FILLER_0_26_107
*1435 FILLER_0_26_124
*1436 FILLER_0_26_132
*1437 FILLER_0_26_167
*1438 FILLER_0_26_183
*1439 FILLER_0_26_193
*1440 FILLER_0_26_2
*1441 FILLER_0_26_247
*1442 FILLER_0_26_251
*1443 FILLER_0_26_255
*1444 FILLER_0_26_26
*1445 FILLER_0_26_272
*1446 FILLER_0_26_280