*SPEF "ieee 1481-1999"
*DESIGN "cbx_1__0_"
*DATE "11:11:11 Fri 11 11, 1111"
*VENDOR "OpenRCX"
*PROGRAM "Parallel Extraction"
*VERSION "1.0"
*DESIGN_FLOW "NAME_SCOPE LOCAL" "PIN_CAP NONE"
*DIVIDER /
*DELIMITER :
*BUS_DELIMITER []
*T_UNIT 1 NS
*C_UNIT 1 PF
*R_UNIT 1 OHM
*L_UNIT 1 HENRY

*NAME_MAP
*1 net87
*2 net86
*3 net85
*4 net84
*5 ccff_head
*6 ccff_tail
*7 chanx_left_in[0]
*8 chanx_left_in[10]
*9 chanx_left_in[11]
*10 chanx_left_in[12]
*11 chanx_left_in[13]
*12 chanx_left_in[14]
*13 chanx_left_in[15]
*14 chanx_left_in[16]
*15 chanx_left_in[17]
*16 chanx_left_in[18]
*17 chanx_left_in[19]
*18 chanx_left_in[1]
*19 chanx_left_in[2]
*20 chanx_left_in[3]
*21 chanx_left_in[4]
*22 chanx_left_in[5]
*23 chanx_left_in[6]
*24 chanx_left_in[7]
*25 chanx_left_in[8]
*26 chanx_left_in[9]
*27 chanx_left_out[0]
*28 chanx_left_out[10]
*29 chanx_left_out[11]
*30 chanx_left_out[12]
*31 chanx_left_out[13]
*32 chanx_left_out[14]
*33 chanx_left_out[15]
*34 chanx_left_out[16]
*35 chanx_left_out[17]
*36 chanx_left_out[18]
*37 chanx_left_out[19]
*38 chanx_left_out[1]
*39 chanx_left_out[2]
*40 chanx_left_out[3]
*41 chanx_left_out[4]
*42 chanx_left_out[5]
*43 chanx_left_out[6]
*44 chanx_left_out[7]
*45 chanx_left_out[8]
*46 chanx_left_out[9]
*47 chanx_right_in[0]
*48 chanx_right_in[10]
*49 chanx_right_in[11]
*50 chanx_right_in[12]
*51 chanx_right_in[13]
*52 chanx_right_in[14]
*53 chanx_right_in[15]
*54 chanx_right_in[16]
*55 chanx_right_in[17]
*56 chanx_right_in[18]
*57 chanx_right_in[19]
*58 chanx_right_in[1]
*59 chanx_right_in[2]
*60 chanx_right_in[3]
*61 chanx_right_in[4]
*62 chanx_right_in[5]
*63 chanx_right_in[6]
*64 chanx_right_in[7]
*65 chanx_right_in[8]
*66 chanx_right_in[9]
*67 chanx_right_out[0]
*68 chanx_right_out[10]
*69 chanx_right_out[11]
*70 chanx_right_out[12]
*71 chanx_right_out[13]
*72 chanx_right_out[14]
*73 chanx_right_out[15]
*74 chanx_right_out[16]
*75 chanx_right_out[17]
*76 chanx_right_out[18]
*77 chanx_right_out[19]
*78 chanx_right_out[1]
*79 chanx_right_out[2]
*80 chanx_right_out[3]
*81 chanx_right_out[4]
*82 chanx_right_out[5]
*83 chanx_right_out[6]
*84 chanx_right_out[7]
*85 chanx_right_out[8]
*86 chanx_right_out[9]
*87 pReset
*88 prog_clk
*89 net88
*90 net89
*91 net90
*94 _000_
*95 _001_
*96 _002_
*97 _003_
*98 _004_
*99 _005_
*100 _006_
*101 _007_
*102 _008_
*103 _009_
*104 _010_
*105 _011_
*106 _012_
*107 _013_
*108 _014_
*109 _015_
*110 _016_
*111 _017_
*112 _018_
*113 _019_
*114 _020_
*115 _021_
*116 _022_
*117 _023_
*118 _024_
*119 _025_
*120 _026_
*121 _027_
*122 _028_
*123 _029_
*124 _030_
*125 _031_
*126 _032_
*127 _033_
*128 _034_
*129 _035_
*130 _036_
*131 _037_
*132 _038_
*133 _039_
*134 _040_
*135 _041_
*136 _042_
*137 _043_
*138 _044_
*139 _045_
*140 _046_
*141 clknet_0_prog_clk
*142 clknet_2_0__leaf_prog_clk
*143 clknet_2_1__leaf_prog_clk
*144 clknet_2_2__leaf_prog_clk
*145 clknet_2_3__leaf_prog_clk
*146 mem_bottom_ipin_0\.DFFR_0_\.Q
*147 mem_bottom_ipin_0\.DFFR_1_\.Q
*148 mem_bottom_ipin_0\.DFFR_2_\.Q
*149 mem_bottom_ipin_0\.DFFR_3_\.Q
*150 mem_bottom_ipin_0\.DFFR_4_\.Q
*151 mem_bottom_ipin_0\.DFFR_5_\.Q
*152 mem_bottom_ipin_1\.DFFR_0_\.Q
*153 mem_bottom_ipin_1\.DFFR_1_\.Q
*154 mem_bottom_ipin_1\.DFFR_2_\.Q
*155 mem_bottom_ipin_1\.DFFR_3_\.Q
*156 mem_bottom_ipin_1\.DFFR_4_\.Q
*157 mem_bottom_ipin_1\.DFFR_5_\.Q
*158 mem_bottom_ipin_2\.DFFR_0_\.Q
*159 mem_bottom_ipin_2\.DFFR_1_\.Q
*160 mem_bottom_ipin_2\.DFFR_2_\.Q
*161 mem_bottom_ipin_2\.DFFR_3_\.Q
*162 mem_bottom_ipin_2\.DFFR_4_\.Q
*163 mem_bottom_ipin_2\.DFFR_5_\.Q
*164 mem_top_ipin_0\.DFFR_0_\.Q
*165 mem_top_ipin_0\.DFFR_1_\.Q
*166 mem_top_ipin_0\.DFFR_2_\.Q
*167 mem_top_ipin_0\.DFFR_3_\.Q
*168 mem_top_ipin_0\.DFFR_4_\.Q
*169 mem_top_ipin_0\.DFFR_5_\.Q
*170 mem_top_ipin_1\.DFFR_0_\.Q
*171 mem_top_ipin_1\.DFFR_1_\.Q
*172 mem_top_ipin_1\.DFFR_2_\.Q
*173 mem_top_ipin_1\.DFFR_3_\.Q
*174 mem_top_ipin_1\.DFFR_4_\.Q
*175 mem_top_ipin_1\.DFFR_5_\.Q
*176 mem_top_ipin_2\.DFFR_0_\.Q
*177 mem_top_ipin_2\.DFFR_1_\.Q
*178 mem_top_ipin_2\.DFFR_2_\.Q
*179 mem_top_ipin_2\.DFFR_3_\.Q
*180 mem_top_ipin_2\.DFFR_4_\.Q
*181 mem_top_ipin_2\.DFFR_5_\.Q
*182 mem_top_ipin_3\.DFFR_0_\.Q
*183 mem_top_ipin_3\.DFFR_1_\.Q
*184 mem_top_ipin_3\.DFFR_2_\.Q
*185 mem_top_ipin_3\.DFFR_3_\.Q
*186 mem_top_ipin_3\.DFFR_4_\.Q
*187 net1
*188 net10
*189 net100
*190 net101
*191 net102
*192 net103
*193 net104
*194 net105
*195 net106
*196 net107
*197 net108
*198 net109
*199 net11
*200 net110
*201 net111
*202 net112
*203 net113
*204 net114
*205 net115
*206 net116
*207 net117
*208 net118
*209 net119
*210 net12
*211 net120
*212 net121
*213 net122
*214 net123
*215 net124
*216 net125
*217 net126
*218 net127
*219 net128
*220 net129
*221 net13
*222 net130
*223 net131
*224 net14
*225 net15
*226 net16
*227 net17
*228 net18
*229 net19
*230 net2
*231 net20
*232 net21
*233 net22
*234 net23
*235 net24
*236 net25
*237 net26
*238 net27
*239 net28
*240 net29
*241 net3
*242 net30
*243 net31
*244 net32
*245 net33
*246 net34
*247 net35
*248 net36
*249 net37
*250 net38
*251 net39
*252 net4
*253 net40
*254 net41
*255 net42
*256 net43
*257 net44
*258 net45
*259 net46
*260 net47
*261 net48
*262 net49
*263 net5
*264 net50
*265 net51
*266 net52
*267 net53
*268 net54
*269 net55
*270 net56
*271 net57
*272 net58
*273 net59
*274 net6
*275 net60
*276 net61
*277 net62
*278 net63
*279 net64
*280 net65
*281 net66
*282 net67
*283 net68
*284 net69
*285 net7
*286 net70
*287 net71
*288 net72
*289 net73
*290 net74
*291 net75
*292 net76
*293 net77
*294 net78
*295 net79
*296 net8
*297 net80
*298 net81
*299 net82
*300 net83
*301 net9
*302 net91
*303 net92
*304 net93
*305 net94
*306 net95
*307 net96
*308 net97
*309 net98
*310 net99
*311 ANTENNA__049__I
*312 ANTENNA__050__I
*313 ANTENNA__051__I
*314 ANTENNA__052__I
*315 ANTENNA__053__I
*316 ANTENNA__054__I
*317 ANTENNA__055__I
*318 ANTENNA__056__I
*319 ANTENNA__057__I
*320 ANTENNA__058__I
*321 ANTENNA__071__I
*322 ANTENNA__072__I
*323 ANTENNA__073__I
*324 ANTENNA__074__I
*325 ANTENNA__075__I
*326 ANTENNA__076__I
*327 ANTENNA__077__I
*328 ANTENNA__078__I
*329 ANTENNA__079__I
*330 ANTENNA__080__I
*331 ANTENNA__113__CLK
*332 ANTENNA__114__CLK
*333 ANTENNA__115__CLK
*334 ANTENNA__116__CLK
*335 ANTENNA__117__CLK
*336 ANTENNA__118__CLK
*337 ANTENNA__119__CLK
*338 ANTENNA__120__CLK
*339 ANTENNA__121__CLK
*340 ANTENNA__122__CLK
*341 ANTENNA__123__CLK
*342 ANTENNA__124__CLK
*343 ANTENNA__125__CLK
*344 ANTENNA__126__CLK
*345 ANTENNA__127__CLK
*346 ANTENNA__128__CLK
*347 ANTENNA__129__CLK
*348 ANTENNA__130__CLK
*349 ANTENNA__131__CLK
*350 ANTENNA__132__CLK
*351 ANTENNA__133__CLK
*352 ANTENNA_clkbuf_0_prog_clk_I
*353 ANTENNA_input10_I
*354 ANTENNA_input11_I
*355 ANTENNA_input12_I
*356 ANTENNA_input13_I
*357 ANTENNA_input14_I
*358 ANTENNA_input15_I
*359 ANTENNA_input16_I
*360 ANTENNA_input17_I
*361 ANTENNA_input18_I
*362 ANTENNA_input19_I
*363 ANTENNA_input1_I
*364 ANTENNA_input20_I
*365 ANTENNA_input21_I
*366 ANTENNA_input22_I
*367 ANTENNA_input23_I
*368 ANTENNA_input24_I
*369 ANTENNA_input25_I
*370 ANTENNA_input26_I
*371 ANTENNA_input27_I
*372 ANTENNA_input28_I
*373 ANTENNA_input29_I
*374 ANTENNA_input2_I
*375 ANTENNA_input30_I
*376 ANTENNA_input31_I
*377 ANTENNA_input32_I
*378 ANTENNA_input33_I
*379 ANTENNA_input34_I
*380 ANTENNA_input35_I
*381 ANTENNA_input36_I
*382 ANTENNA_input37_I
*383 ANTENNA_input38_I
*384 ANTENNA_input39_I
*385 ANTENNA_input3_I
*386 ANTENNA_input40_I
*387 ANTENNA_input41_I
*388 ANTENNA_input42_I
*389 ANTENNA_input4_I
*390 ANTENNA_input5_I
*391 ANTENNA_input6_I
*392 ANTENNA_input7_I
*393 ANTENNA_input8_I
*394 ANTENNA_input9_I
*395 FILLER_0_0_104
*396 FILLER_0_0_118
*397 FILLER_0_0_132
*398 FILLER_0_0_148
*399 FILLER_0_0_154
*400 FILLER_0_0_166
*401 FILLER_0_0_2
*402 FILLER_0_0_200
*403 FILLER_0_0_206
*404 FILLER_0_0_220
*405 FILLER_0_0_234
*406 FILLER_0_0_240
*407 FILLER_0_0_36
*408 FILLER_0_0_44
*409 FILLER_0_0_54
*410 FILLER_0_0_70
*411 FILLER_0_10_107
*412 FILLER_0_10_109
*413 FILLER_0_10_154
*414 FILLER_0_10_162
*415 FILLER_0_10_166
*416 FILLER_0_10_235
*417 FILLER_0_10_239
*418 FILLER_0_10_26
*419 FILLER_0_10_34
*420 FILLER_0_10_37
*421 FILLER_0_10_41
*422 FILLER_0_10_51
*423 FILLER_0_10_8
*424 FILLER_0_10_89
*425 FILLER_0_11_122
*426 FILLER_0_11_126
*427 FILLER_0_11_134
*428 FILLER_0_11_138
*429 FILLER_0_11_142
*430 FILLER_0_11_158
*431 FILLER_0_11_162
*432 FILLER_0_11_198
*433 FILLER_0_11_212
*434 FILLER_0_11_216
*435 FILLER_0_11_220
*436 FILLER_0_11_237
*437 FILLER_0_12_103
*438 FILLER_0_12_115
*439 FILLER_0_12_167
*440 FILLER_0_12_177
*441 FILLER_0_12_2
*442 FILLER_0_12_227
*443 FILLER_0_12_231
*444 FILLER_0_12_239
*445 FILLER_0_12_26
*446 FILLER_0_12_34
*447 FILLER_0_12_37
*448 FILLER_0_12_41
*449 FILLER_0_12_43
*450 FILLER_0_12_60
*451 FILLER_0_12_68
*452 FILLER_0_13_127
*453 FILLER_0_13_135
*454 FILLER_0_13_139
*455 FILLER_0_13_142
*456 FILLER_0_13_150
*457 FILLER_0_13_167
*458 FILLER_0_13_175
*459 FILLER_0_13_2
*460 FILLER_0_13_212
*461 FILLER_0_13_214
*462 FILLER_0_13_217
*463 FILLER_0_13_237
*464 FILLER_0_13_40
*465 FILLER_0_13_44
*466 FILLER_0_13_61
*467 FILLER_0_13_69
*468 FILLER_0_13_72
*469 FILLER_0_13_74
*470 FILLER_0_13_83
*471 FILLER_0_13_87
*472 FILLER_0_14_107
*473 FILLER_0_14_115
*474 FILLER_0_14_132
*475 FILLER_0_14_164
*476 FILLER_0_14_177
*477 FILLER_0_14_181
*478 FILLER_0_14_233
*479 FILLER_0_14_237
*480 FILLER_0_14_26
*481 FILLER_0_14_30
*482 FILLER_0_14_34
*483 FILLER_0_15_129
*484 FILLER_0_15_133
*485 FILLER_0_15_137
*486 FILLER_0_15_139
*487 FILLER_0_15_142
*488 FILLER_0_15_158
*489 FILLER_0_15_162
*490 FILLER_0_15_164
*491 FILLER_0_15_2
*492 FILLER_0_15_209
*493 FILLER_0_15_212
*494 FILLER_0_15_216
*495 FILLER_0_15_220
*496 FILLER_0_15_237
*497 FILLER_0_15_52
*498 FILLER_0_15_60
*499 FILLER_0_15_72
*500 FILLER_0_15_80
*501 FILLER_0_15_84
*502 FILLER_0_15_86
*503 FILLER_0_16_102
*504 FILLER_0_16_104
*505 FILLER_0_16_123
*506 FILLER_0_16_155
*507 FILLER_0_16_2
*508 FILLER_0_16_227
*509 FILLER_0_16_235
*510 FILLER_0_16_239
*511 FILLER_0_16_26
*512 FILLER_0_16_34
*513 FILLER_0_16_37
*514 FILLER_0_16_45
*515 FILLER_0_16_65
*516 FILLER_0_16_73
*517 FILLER_0_16_90
*518 FILLER_0_16_98
*519 FILLER_0_17_122
*520 FILLER_0_17_138
*521 FILLER_0_17_142
*522 FILLER_0_17_146
*523 FILLER_0_17_182
*524 FILLER_0_17_186
*525 FILLER_0_17_190
*526 FILLER_0_17_207
*527 FILLER_0_17_209
*528 FILLER_0_17_212
*529 FILLER_0_17_220
*530 FILLER_0_17_224
*531 FILLER_0_18_107
*532 FILLER_0_18_119
*533 FILLER_0_18_121
*534 FILLER_0_18_174
*535 FILLER_0_18_177
*536 FILLER_0_18_18
*537 FILLER_0_18_181
*538 FILLER_0_18_192
*539 FILLER_0_18_2
*540 FILLER_0_18_230
*541 FILLER_0_18_234
*542 FILLER_0_18_30
*543 FILLER_0_18_34
*544 FILLER_0_18_45
*545 FILLER_0_18_49
*546 FILLER_0_18_53
*547 FILLER_0_18_97
*548 FILLER_0_19_142
*549 FILLER_0_19_150
*550 FILLER_0_19_2
*551 FILLER_0_19_201
*552 FILLER_0_19_212
*553 FILLER_0_19_232
*554 FILLER_0_19_236
*555 FILLER_0_19_240
*556 FILLER_0_19_34
*557 FILLER_0_19_72
*558 FILLER_0_19_81
*559 FILLER_0_19_89
*560 FILLER_0_1_105
*561 FILLER_0_1_119
*562 FILLER_0_1_129
*563 FILLER_0_1_137
*564 FILLER_0_1_160
*565 FILLER_0_1_164
*566 FILLER_0_1_2
*567 FILLER_0_1_206
*568 FILLER_0_1_212
*569 FILLER_0_1_220
*570 FILLER_0_1_222
*571 FILLER_0_1_239
*572 FILLER_0_1_34
*573 FILLER_0_1_50
*574 FILLER_0_1_58
*575 FILLER_0_1_62
*576 FILLER_0_1_66
*577 FILLER_0_1_72
*578 FILLER_0_1_85
*579 FILLER_0_1_91
*580 FILLER_0_20_149
*581 FILLER_0_20_157
*582 FILLER_0_20_174
*583 FILLER_0_20_185
*584 FILLER_0_20_2
*585 FILLER_0_20_228
*586 FILLER_0_20_232
*587 FILLER_0_20_34
*588 FILLER_0_20_37
*589 FILLER_0_20_53
*590 FILLER_0_21_126
*591 FILLER_0_21_136
*592 FILLER_0_21_142
*593 FILLER_0_21_177
*594 FILLER_0_21_181
*595 FILLER_0_21_185
*596 FILLER_0_21_2
*597 FILLER_0_21_212
*598 FILLER_0_21_216
*599 FILLER_0_21_220
*600 FILLER_0_21_224
*601 FILLER_0_21_232
*602 FILLER_0_21_66
*603 FILLER_0_21_80
*604 FILLER_0_21_88
*605 FILLER_0_22_101
*606 FILLER_0_22_107
*607 FILLER_0_22_123
*608 FILLER_0_22_131
*609 FILLER_0_22_148
*610 FILLER_0_22_164
*611 FILLER_0_22_172
*612 FILLER_0_22_174
*613 FILLER_0_22_177
*614 FILLER_0_22_193
*615 FILLER_0_22_2
*616 FILLER_0_22_203
*617 FILLER_0_22_221
*618 FILLER_0_22_34
*619 FILLER_0_22_37
*620 FILLER_0_23_104
*621 FILLER_0_23_108
*622 FILLER_0_23_126
*623 FILLER_0_23_134
*624 FILLER_0_23_138
*625 FILLER_0_23_142
*626 FILLER_0_23_2
*627 FILLER_0_23_206
*628 FILLER_0_23_212
*629 FILLER_0_23_220
*630 FILLER_0_23_66
*631 FILLER_0_23_72
*632 FILLER_0_24_101
*633 FILLER_0_24_107
*634 FILLER_0_24_171
*635 FILLER_0_24_177
*636 FILLER_0_24_2
*637 FILLER_0_24_209
*638 FILLER_0_24_213
*639 FILLER_0_24_34
*640 FILLER_0_24_37
*641 FILLER_0_25_122
*642 FILLER_0_25_138
*643 FILLER_0_25_142
*644 FILLER_0_25_158
*645 FILLER_0_25_166
*646 FILLER_0_25_176
*647 FILLER_0_25_192
*648 FILLER_0_25_2
*649 FILLER_0_25_200
*650 FILLER_0_25_224
*651 FILLER_0_25_226
*652 FILLER_0_25_237
*653 FILLER_0_25_66
*654 FILLER_0_25_90
*655 FILLER_0_26_113
*656 FILLER_0_26_117
*657 FILLER_0_26_119
*658 FILLER_0_26_12
*659 FILLER_0_26_132
*660 FILLER_0_26_140
*661 FILLER_0_26_156
*662 FILLER_0_26_160
*663 FILLER_0_26_162
*664 FILLER_0_26_183
*665 FILLER_0_26_191
*666 FILLER_0_26_195
*667 FILLER_0_26_197
*668 FILLER_0_26_224
*669 FILLER_0_26_226
*670 FILLER_0_26_237
*671 FILLER_0_26_28
*672 FILLER_0_26_32
*673 FILLER_0_26_34
*674 FILLER_0_26_37
*675 FILLER_0_26_53
*676 FILLER_0_26_8
*677 FILLER_0_26_97
*678 FILLER_0_27_107
*679 FILLER_0_27_111
*680 FILLER_0_27_12
*681 FILLER_0_27_121
*682 FILLER_0_27_137
*683 FILLER_0_27_139
*684 FILLER_0_27_142
*685 FILLER_0_27_174
*686 FILLER_0_27_212
*687 FILLER_0_27_216
*688 FILLER_0_27_24
*689 FILLER_0_27_28
*690 FILLER_0_27_32
*691 FILLER_0_27_40
*692 FILLER_0_27_43
*693 FILLER_0_27_51
*694 FILLER_0_27_55
*695 FILLER_0_27_63
*696 FILLER_0_27_67
*697 FILLER_0_27_69
*698 FILLER_0_27_72
*699 FILLER_0_27_83
*700 FILLER_0_27_99
*701 FILLER_0_28_101
*702 FILLER_0_28_117
*703 FILLER_0_28_127
*704 FILLER_0_28_135
*705 FILLER_0_28_145
*706 FILLER_0_28_149
*707 FILLER_0_28_16
*708 FILLER_0_28_161
*709 FILLER_0_28_171
*710 FILLER_0_28_18
*711 FILLER_0_28_183
*712 FILLER_0_28_197
*713 FILLER_0_28_2
*714 FILLER_0_28_223
*715 FILLER_0_28_237
*716 FILLER_0_28_31
*717 FILLER_0_28_37
*718 FILLER_0_28_61
*719 FILLER_0_28_73
*720 FILLER_0_29_104
*721 FILLER_0_29_108
*722 FILLER_0_29_119
*723 FILLER_0_29_123
*724 FILLER_0_29_133
*725 FILLER_0_29_135
*726 FILLER_0_29_148
*727 FILLER_0_29_162
*728 FILLER_0_29_182
*729 FILLER_0_29_196
*730 FILLER_0_29_2
*731 FILLER_0_29_200
*732 FILLER_0_29_21
*733 FILLER_0_29_216
*734 FILLER_0_29_240
*735 FILLER_0_29_36
*736 FILLER_0_29_51
*737 FILLER_0_29_53
*738 FILLER_0_29_6
*739 FILLER_0_29_70
*740 FILLER_0_2_113
*741 FILLER_0_2_115
*742 FILLER_0_2_122
*743 FILLER_0_2_138
*744 FILLER_0_2_148
*745 FILLER_0_2_155
*746 FILLER_0_2_171
*747 FILLER_0_2_174
*748 FILLER_0_2_177
*749 FILLER_0_2_181
*750 FILLER_0_2_2
*751 FILLER_0_2_222
*752 FILLER_0_2_237
*753 FILLER_0_2_34
*754 FILLER_0_2_37
*755 FILLER_0_2_69
*756 FILLER_0_2_73
*757 FILLER_0_3_136
*758 FILLER_0_3_142
*759 FILLER_0_3_158
*760 FILLER_0_3_175
*761 FILLER_0_3_183
*762 FILLER_0_3_2
*763 FILLER_0_3_200
*764 FILLER_0_3_212
*765 FILLER_0_3_220
*766 FILLER_0_3_237
*767 FILLER_0_3_66
*768 FILLER_0_3_72
*769 FILLER_0_4_101
*770 FILLER_0_4_107
*771 FILLER_0_4_115
*772 FILLER_0_4_132
*773 FILLER_0_4_140
*774 FILLER_0_4_157
*775 FILLER_0_4_173
*776 FILLER_0_4_177
*777 FILLER_0_4_185
*778 FILLER_0_4_189
*779 FILLER_0_4_22
*780 FILLER_0_4_224
*781 FILLER_0_4_226
*782 FILLER_0_4_237
*783 FILLER_0_4_30
*784 FILLER_0_4_34
*785 FILLER_0_4_37
*786 FILLER_0_4_6
*787 FILLER_0_5_116
*788 FILLER_0_5_132
*789 FILLER_0_5_142
*790 FILLER_0_5_150
*791 FILLER_0_5_152
*792 FILLER_0_5_155
*793 FILLER_0_5_159
*794 FILLER_0_5_194
*795 FILLER_0_5_198
*796 FILLER_0_5_2
*797 FILLER_0_5_212
*798 FILLER_0_5_220
*799 FILLER_0_5_237
*800 FILLER_0_5_38
*801 FILLER_0_5_72
*802 FILLER_0_5_80
*803 FILLER_0_6_103
*804 FILLER_0_6_107
*805 FILLER_0_6_115
*806 FILLER_0_6_153
*807 FILLER_0_6_162
*808 FILLER_0_6_170
*809 FILLER_0_6_172
*810 FILLER_0_6_177
*811 FILLER_0_6_18
*812 FILLER_0_6_186
*813 FILLER_0_6_2
*814 FILLER_0_6_240
*815 FILLER_0_6_26
*816 FILLER_0_6_37
*817 FILLER_0_6_41
*818 FILLER_0_6_45
*819 FILLER_0_6_63
*820 FILLER_0_6_95
*821 FILLER_0_7_10
*822 FILLER_0_7_137
*823 FILLER_0_7_139
*824 FILLER_0_7_2
*825 FILLER_0_7_212
*826 FILLER_0_7_216
*827 FILLER_0_7_220
*828 FILLER_0_7_237
*829 FILLER_0_7_46
*830 FILLER_0_7_62
*831 FILLER_0_7_72
*832 FILLER_0_7_88
*833 FILLER_0_7_96
*834 FILLER_0_8_107
*835 FILLER_0_8_109
*836 FILLER_0_8_148
*837 FILLER_0_8_156
*838 FILLER_0_8_173
*839 FILLER_0_8_177
*840 FILLER_0_8_18
*841 FILLER_0_8_2
*842 FILLER_0_8_212
*843 FILLER_0_8_216
*844 FILLER_0_8_220
*845 FILLER_0_8_237
*846 FILLER_0_8_45
*847 FILLER_0_8_49
*848 FILLER_0_8_66
*849 FILLER_0_8_70
*850 FILLER_0_8_78
*851 FILLER_0_9_110
*852 FILLER_0_9_118
*853 FILLER_0_9_135
*854 FILLER_0_9_139
*855 FILLER_0_9_142
*856 FILLER_0_9_146
*857 FILLER_0_9_156
*858 FILLER_0_9_160
*859 FILLER_0_9_2
*860 FILLER_0_9_203
*861 FILLER_0_9_207
*862 FILLER_0_9_209
*863 FILLER_0_9_212
*864 FILLER_0_9_220
*865 FILLER_0_9_237
*866 FILLER_0_9_58
*867 FILLER_0_9_6
*868 FILLER_0_9_67
*869 FILLER_0_9_69
*870 PHY_EDGE_ROW_0_Left_30
*871 PHY_EDGE_ROW_0_Right_0
*872 PHY_EDGE_ROW_10_Left_40
*873 PHY_EDGE_ROW_10_Right_10
*874 PHY_EDGE_ROW_11_Left_41
*875 PHY_EDGE_ROW_11_Right_11
*876 PHY_EDGE_ROW_12_Left_42
*877 PHY_EDGE_ROW_12_Right_12
*878 PHY_EDGE_ROW_13_Left_43
*879 PHY_EDGE_ROW_13_Right_13
*880 PHY_EDGE_ROW_14_Left_44
*881 PHY_EDGE_ROW_14_Right_14
*882 PHY_EDGE_ROW_15_Left_45
*883 PHY_EDGE_ROW_15_Right_15
*884 PHY_EDGE_ROW_16_Left_46
*885 PHY_EDGE_ROW_16_Right_16
*886 PHY_EDGE_ROW_17_Left_47
*887 PHY_EDGE_ROW_17_Right_17
*888 PHY_EDGE_ROW_18_Left_48
*889 PHY_EDGE_ROW_18_Right_18
*890 PHY_EDGE_ROW_19_Left_49
*891 PHY_EDGE_ROW_19_Right_19
*892 PHY_EDGE_ROW_1_Left_31
*893 PHY_EDGE_ROW_1_Right_1
*894 PHY_EDGE_ROW_20_Left_50
*895 PHY_EDGE_ROW_20_Right_20
*896 PHY_EDGE_ROW_21_Left_51
*897 PHY_EDGE_ROW_21_Right_21
*898 PHY_EDGE_ROW_22_Left_52
*899 PHY_EDGE_ROW_22_Right_22
*900 PHY_EDGE_ROW_23_Left_53
*901 PHY_EDGE_ROW_23_Right_23
*902 PHY_EDGE_ROW_24_Left_54
*903 PHY_EDGE_ROW_24_Right_24
*904 PHY_EDGE_ROW_25_Left_55
*905 PHY_EDGE_ROW_25_Right_25
*906 PHY_EDGE_ROW_26_Left_56
*907 PHY_EDGE_ROW_26_Right_26
*908 PHY_EDGE_ROW_27_Left_57
*909 PHY_EDGE_ROW_27_Right_27
*910 PHY_EDGE_ROW_28_Left_58
*911 PHY_EDGE_ROW_28_Right_28
*912 PHY_EDGE_ROW_29_Left_59
*913 PHY_EDGE_ROW_29_Right_29
*914 PHY_EDGE_ROW_2_Left_32
*915 PHY_EDGE_ROW_2_Right_2
*916 PHY_EDGE_ROW_3_Left_33
*917 PHY_EDGE_ROW_3_Right_3
*918 PHY_EDGE_ROW_4_Left_34
*919 PHY_EDGE_ROW_4_Right_4
*920 PHY_EDGE_ROW_5_Left_35
*921 PHY_EDGE_ROW_5_Right_5
*922 PHY_EDGE_ROW_6_Left_36
*923 PHY_EDGE_ROW_6_Right_6
*924 PHY_EDGE_ROW_7_Left_37
*925 PHY_EDGE_ROW_7_Right_7
*926 PHY_EDGE_ROW_8_Left_38
*927 PHY_EDGE_ROW_8_Right_8
*928 PHY_EDGE_ROW_9_Left_39
*929 PHY_EDGE_ROW_9_Right_9
*930 TAP_TAPCELL_ROW_0_60
*931 TAP_TAPCELL_ROW_0_61
*932 TAP_TAPCELL_ROW_0_62
*933 TAP_TAPCELL_ROW_0_63
*934 TAP_TAPCELL_ROW_0_64
*935 TAP_TAPCELL_ROW_0_65
*936 TAP_TAPCELL_ROW_0_66
*937 TAP_TAPCELL_ROW_10_94
*938 TAP_TAPCELL_ROW_10_95
*939 TAP_TAPCELL_ROW_10_96
*940 TAP_TAPCELL_ROW_11_97
*941 TAP_TAPCELL_ROW_11_98
*942 TAP_TAPCELL_ROW_11_99
*943 TAP_TAPCELL_ROW_12_100
*944 TAP_TAPCELL_ROW_12_101
*945 TAP_TAPCELL_ROW_12_102
*946 TAP_TAPCELL_ROW_13_103
*947 TAP_TAPCELL_ROW_13_104
*948 TAP_TAPCELL_ROW_13_105
*949 TAP_TAPCELL_ROW_14_106
*950 TAP_TAPCELL_ROW_14_107
*951 TAP_TAPCELL_ROW_14_108
*952 TAP_TAPCELL_ROW_15_109
*953 TAP_TAPCELL_ROW_15_110
*954 TAP_TAPCELL_ROW_15_111
*955 TAP_TAPCELL_ROW_16_112
*956 TAP_TAPCELL_ROW_16_113
*957 TAP_TAPCELL_ROW_16_114
*958 TAP_TAPCELL_ROW_17_115
*959 TAP_TAPCELL_ROW_17_116
*960 TAP_TAPCELL_ROW_17_117
*961 TAP_TAPCELL_ROW_18_118
*962 TAP_TAPCELL_ROW_18_119
*963 TAP_TAPCELL_ROW_18_120
*964 TAP_TAPCELL_ROW_19_121
*965 TAP_TAPCELL_ROW_19_122
*966 TAP_TAPCELL_ROW_19_123
*967 TAP_TAPCELL_ROW_1_67
*968 TAP_TAPCELL_ROW_1_68
*969 TAP_TAPCELL_ROW_1_69
*970 TAP_TAPCELL_ROW_20_124
*971 TAP_TAPCELL_ROW_20_125
*972 TAP_TAPCELL_ROW_20_126
*973 TAP_TAPCELL_ROW_21_127
*974 TAP_TAPCELL_ROW_21_128
*975 TAP_TAPCELL_ROW_21_129
*976 TAP_TAPCELL_ROW_22_130
*977 TAP_TAPCELL_ROW_22_131
*978 TAP_TAPCELL_ROW_22_132
*979 TAP_TAPCELL_ROW_23_133
*980 TAP_TAPCELL_ROW_23_134
*981 TAP_TAPCELL_ROW_23_135
*982 TAP_TAPCELL_ROW_24_136
*983 TAP_TAPCELL_ROW_24_137
*984 TAP_TAPCELL_ROW_24_138
*985 TAP_TAPCELL_ROW_25_139
*986 TAP_TAPCELL_ROW_25_140
*987 TAP_TAPCELL_ROW_25_141
*988 TAP_TAPCELL_ROW_26_142
*989 TAP_TAPCELL_ROW_26_143
*990 TAP_TAPCELL_ROW_26_144
*991 TAP_TAPCELL_ROW_27_145
*992 TAP_TAPCELL_ROW_27_146
*993 TAP_TAPCELL_ROW_27_147
*994 TAP_TAPCELL_ROW_28_148
*995 TAP_TAPCELL_ROW_28_149
*996 TAP_TAPCELL_ROW_28_150
*997 TAP_TAPCELL_ROW_29_151
*998 TAP_TAPCELL_ROW_29_152
*999 TAP_TAPCELL_ROW_29_153
*1000 TAP_TAPCELL_ROW_29_154
*1001 TAP_TAPCELL_ROW_29_155
*1002 TAP_TAPCELL_ROW_29_156
*1003 TAP_TAPCELL_ROW_29_157
*1004 TAP_TAPCELL_ROW_2_70
*1005 TAP_TAPCELL_ROW_2_71
*1006 TAP_TAPCELL_ROW_2_72
*1007 TAP_TAPCELL_ROW_3_73
*1008 TAP_TAPCELL_ROW_3_74
*1009 TAP_TAPCELL_ROW_3_75
*1010 TAP_TAPCELL_ROW_4_76
*1011 TAP_TAPCELL_ROW_4_77
*1012 TAP_TAPCELL_ROW_4_78
*1013 TAP_TAPCELL_ROW_5_79
*1014 TAP_TAPCELL_ROW_5_80
*1015 TAP_TAPCELL_ROW_5_81
*1016 TAP_TAPCELL_ROW_6_82
*1017 TAP_TAPCELL_ROW_6_83
*1018 TAP_TAPCELL_ROW_6_84
*1019 TAP_TAPCELL_ROW_7_85
*1020 TAP_TAPCELL_ROW_7_86
*1021 TAP_TAPCELL_ROW_7_87
*1022 TAP_TAPCELL_ROW_8_88
*1023 TAP_TAPCELL_ROW_8_89
*1024 TAP_TAPCELL_ROW_8_90
*1025 TAP_TAPCELL_ROW_9_91
*1026 TAP_TAPCELL_ROW_9_92
*1027 TAP_TAPCELL_ROW_9_93
*1028 _047_
*1029 _048_
*1030 _049_
*1031 _050_
*1032 _051_
*1033 _052_
*1034 _053_
*1035 _054_
*1036 _055_
*1037 _056_
*1038 _057_
*1039 _058_
*1040 _059_
*1041 _060_
*1042 _061_
*1043 _062_
*1044 _063_
*1045 _064_
*1046 _065_
*1047 _066_
*1048 _067_
*1049 _068_
*1050 _069_
*1051 _070_
*1052 _071_
*1053 _072_
*1054 _073_
*1055 _074_
*1056 _075_
*1057 _076_
*1058 _077_
*1059 _078_
*1060 _079_
*1061 _080_
*1062 _081_
*1063 _082_
*1064 _083_
*1065 _084_
*1066 _085_
*1067 _086_
*1068 _087_
*1069 _088_
*1070 _089_
*1071 _090_
*1072 _091_
*1073 _092_
*1074 _093_
*1075 _094_
*1076 _095_
*1077 _096_
*1078 _097_
*1079 _098_
*1080 _099_
*1081 _100_
*1082 _101_
*1083 _102_
*1084 _103_
*1085 _104_
*1086 _105_
*1087 _106_
*1088 _107_
*1089 _108_
*1090 _109_
*1091 _110_
*1092 _111_
*1093 _112_
*1094 _113_
*1095 _114_
*1096 _115_
*1097 _116_
*1098 _117_
*1099 _118_
*1100 _119_
*1101 _120_
*1102 _121_
*1103 _122_
*1104 _123_
*1105 _124_
*1106 _125_
*1107 _126_
*1108 _127_
*1109 _128_
*1110 _129_
*1111 _130_
*1112 _131_
*1113 _132_
*1114 _133_
*1115 _134_
*1116 _135_
*1117 _143_
*1118 _144_
*1119 _145_
*1120 _146_
*1121 _147_
*1122 _148_
*1123 _149_
*1124 _150_
*1125 _151_
*1126 _152_
*1127 _153_
*1128 _154_
*1129 _155_
*1130 _156_
*1131 _157_
*1132 _158_
*1133 _159_
*1134 _160_
*1135 _161_
*1136 _162_
*1137 _163_
*1138 _164_
*1139 _165_
*1140 _166_
*1141 _167_
*1142 _168_
*1143 _169_
*1144 _170_
*1145 _171_
*1146 _172_
*1147 _173_
*1148 _174_
*1149 _175_
*1150 _176_
*1151 _177_
*1152 _178_
*1153 _179_
*1154 _180_
*1155 _181_
*1156 _182_
*1157 cbx_1__0__84
*1158 cbx_1__0__85
*1159 cbx_1__0__86
*1160 cbx_1__0__87
*1161 cbx_1__0__88
*1162 cbx_1__0__89
*1163 cbx_1__0__90
*1164 clkbuf_0_prog_clk
*1165 clkbuf_2_0__f_prog_clk
*1166 clkbuf_2_1__f_prog_clk
*1167 clkbuf_2_2__f_prog_clk
*1168 clkbuf_2_3__f_prog_clk
*1169 hold1
*1170 hold10
*1171 hold11
*1172 hold12
*1173 hold13
*1174 hold14
*1175 hold15
*1176 hold16
*1177 hold17
*1178 hold18
*1179 hold19
*1180 hold2
*1181 hold20
*1182 hold21
*1183 hold22
*1184 hold23
*1185 hold24
*1186 hold25
*1187 hold26
*1188 hold27
*1189 hold28
*1190 hold29
*1191 hold3
*1192 hold30
*1193 hold31
*1194 hold32
*1195 hold33
*1196 hold34
*1197 hold35
*1198 hold36
*1199 hold37
*1200 hold38
*1201 hold39
*1202 hold4
*1203 hold40
*1204 hold41
*1205 hold5
*1206 hold6
*1207 hold7
*1208 hold8
*1209 hold9
*1210 input1
*1211 input10
*1212 input11
*1213 input12
*1214 input13
*1215 input14
*1216 input15
*1217 input16
*1218 input17
*1219 input18
*1220 input19
*1221 input2
*1222 input20
*1223 input21
*1224 input22
*1225 input23
*1226 input24
*1227 input25
*1228 input26
*1229 input27
*1230 input28
*1231 input29
*1232 input3
*1233 input30
*1234 input31
*1235 input32
*1236 input33
*1237 input34
*1238 input35
*1239 input36
*1240 input37
*1241 input38
*1242 input39
*1243 input4
*1244 input40
*1245 input41
*1246 input42
*1247 input5
*1248 input6
*1249 input7
*1250 input8
*1251 input9
*1252 output43
*1253 output44
*1254 output45
*1255 output46
*1256 output47
*1257 output48
*1258 output49
*1259 output50
*1260 output51
*1261 output52
*1262 output53
*1263 output54
*1264 output55
*1265 output56
*1266 output57
*1267 output58
*1268 output59
*1269 output60
*1270 output61
*1271 output62
*1272 output63
*1273 output64
*1274 output65
*1275 output66
*1276 output67
*1277 output68
*1278 output69
*1279 output70
*1280 output71
*1281 output72
*1282 output73
*1283 output74
*1284 output75
*1285 output76
*1286 output77
*1287 output78
*1288 output79
*1289 output80
*1290 output81
*1291 output82
*1292 output83

*PORTS
bottom_grid_top_width_0_height_0_subtile_0__pin_outpad_0_ O
bottom_grid_top_width_0_height_0_subtile_1__pin_outpad_0_ O
bottom_grid_top_width_0_height_0_subtile_2__pin_outpad_0_ O
bottom_grid_top_width_0_height_0_subtile_3__pin_outpad_0_ O
ccff_head I
ccff_tail O
chanx_left_in[0] I
chanx_left_in[10] I
chanx_left_in[11] I
chanx_left_in[12] I
chanx_left_in[13] I
chanx_left_in[14] I
chanx_left_in[15] I
chanx_left_in[16] I
chanx_left_in[17] I
chanx_left_in[18] I
chanx_left_in[19] I
chanx_left_in[1] I
chanx_left_in[2] I
chanx_left_in[3] I
chanx_left_in[4] I
chanx_left_in[5] I
chanx_left_in[6] I
chanx_left_in[7] I
chanx_left_in[8] I
chanx_left_in[9] I
chanx_left_out[0] O
chanx_left_out[10] O
chanx_left_out[11] O
chanx_left_out[12] O
chanx_left_out[13] O
chanx_left_out[14] O
chanx_left_out[15] O
chanx_left_out[16] O
chanx_left_out[17] O
chanx_left_out[18] O
chanx_left_out[19] O
chanx_left_out[1] O
chanx_left_out[2] O
chanx_left_out[3] O
chanx_left_out[4] O
chanx_left_out[5] O
chanx_left_out[6] O
chanx_left_out[7] O
chanx_left_out[8] O
chanx_left_out[9] O
chanx_right_in[0] I
chanx_right_in[10] I
chanx_right_in[11] I
chanx_right_in[12] I
chanx_right_in[13] I
chanx_right_in[14] I
chanx_right_in[15] I
chanx_right_in[16] I
chanx_right_in[17] I
chanx_right_in[18] I
chanx_right_in[19] I
chanx_right_in[1] I
chanx_right_in[2] I
chanx_right_in[3] I
chanx_right_in[4] I
chanx_right_in[5] I
chanx_right_in[6] I
chanx_right_in[7] I
chanx_right_in[8] I
chanx_right_in[9] I
chanx_right_out[0] O
chanx_right_out[10] O
chanx_right_out[11] O
chanx_right_out[12] O
chanx_right_out[13] O
chanx_right_out[14] O
chanx_right_out[15] O
chanx_right_out[16] O
chanx_right_out[17] O
chanx_right_out[18] O
chanx_right_out[19] O
chanx_right_out[1] O
chanx_right_out[2] O
chanx_right_out[3] O
chanx_right_out[4] O
chanx_right_out[5] O
chanx_right_out[6] O
chanx_right_out[7] O
chanx_right_out[8] O
chanx_right_out[9] O
pReset I
prog_clk I
top_grid_bottom_width_0_height_0_subtile_0__pin_I_10_ O
top_grid_bottom_width_0_height_0_subtile_0__pin_I_2_ O
top_grid_bottom_width_0_height_0_subtile_0__pin_I_6_ O

*D_NET *1 0.00371535
*CONN
*P bottom_grid_top_width_0_height_0_subtile_0__pin_outpad_0_ O
*I *1160:ZN O *D gf180mcu_fd_sc_mcu7t5v0__tiel
*CAP
1 bottom_grid_top_width_0_height_0_subtile_0__pin_outpad_0_ 0.00134971
2 *1160:ZN 0.00134971
3 bottom_grid_top_width_0_height_0_subtile_0__pin_outpad_0_ chanx_left_out[2] 3.27122e-05
4 bottom_grid_top_width_0_height_0_subtile_0__pin_outpad_0_ *1105:D 5.37445e-05
5 bottom_grid_top_width_0_height_0_subtile_0__pin_outpad_0_ *1265:I 0.000783673
6 bottom_grid_top_width_0_height_0_subtile_0__pin_outpad_0_ *23:9 0.000145808
*RES
1 *1160:ZN bottom_grid_top_width_0_height_0_subtile_0__pin_outpad_0_ 20.7 
*END

*D_NET *2 0.0027124
*CONN
*P bottom_grid_top_width_0_height_0_subtile_1__pin_outpad_0_ O
*I *1159:ZN O *D gf180mcu_fd_sc_mcu7t5v0__tiel
*CAP
1 bottom_grid_top_width_0_height_0_subtile_1__pin_outpad_0_ 0.000685742
2 *1159:ZN 0.000685742
3 bottom_grid_top_width_0_height_0_subtile_1__pin_outpad_0_ chanx_left_out[14] 3.7145e-05
4 bottom_grid_top_width_0_height_0_subtile_1__pin_outpad_0_ chanx_right_out[11] 1.23478e-05
5 bottom_grid_top_width_0_height_0_subtile_1__pin_outpad_0_ chanx_right_out[18] 0.000259914
6 bottom_grid_top_width_0_height_0_subtile_1__pin_outpad_0_ *1247:I 0.000250166
7 bottom_grid_top_width_0_height_0_subtile_1__pin_outpad_0_ *14:13 0.000339086
8 bottom_grid_top_width_0_height_0_subtile_1__pin_outpad_0_ *25:13 0.00044226
*RES
1 *1159:ZN bottom_grid_top_width_0_height_0_subtile_1__pin_outpad_0_ 21.144 
*END

*D_NET *3 0.0012182
*CONN
*P bottom_grid_top_width_0_height_0_subtile_2__pin_outpad_0_ O
*I *1158:ZN O *D gf180mcu_fd_sc_mcu7t5v0__tiel
*CAP
1 bottom_grid_top_width_0_height_0_subtile_2__pin_outpad_0_ 0.000548572
2 *1158:ZN 0.000548572
3 bottom_grid_top_width_0_height_0_subtile_2__pin_outpad_0_ bottom_grid_top_width_0_height_0_subtile_3__pin_outpad_0_ 0.000121055
*RES
1 *1158:ZN bottom_grid_top_width_0_height_0_subtile_2__pin_outpad_0_ 9.336 
*END

*D_NET *4 0.00137439
*CONN
*P bottom_grid_top_width_0_height_0_subtile_3__pin_outpad_0_ O
*I *1157:ZN O *D gf180mcu_fd_sc_mcu7t5v0__tiel
*CAP
1 bottom_grid_top_width_0_height_0_subtile_3__pin_outpad_0_ 0.000506244
2 *1157:ZN 0.000506244
3 bottom_grid_top_width_0_height_0_subtile_3__pin_outpad_0_ chanx_right_out[10] 0.000240844
4 bottom_grid_top_width_0_height_0_subtile_2__pin_outpad_0_ bottom_grid_top_width_0_height_0_subtile_3__pin_outpad_0_ 0.000121055
*RES
1 *1157:ZN bottom_grid_top_width_0_height_0_subtile_3__pin_outpad_0_ 9.856 
*END

*D_NET *5 0.000954525
*CONN
*P ccff_head I
*I *1210:I I *D gf180mcu_fd_sc_mcu7t5v0__clkbuf_1
*I *363:I I *D gf180mcu_fd_sc_mcu7t5v0__antenna
*CAP
1 ccff_head 0.000232299
2 *1210:I 0.000152018
3 *363:I 0
4 *5:7 0.000384317
5 *1210:I *1079:RN 1.59524e-05
6 *1210:I *1080:D 9.09864e-05
7 *1210:I *1198:I 4.18157e-05