*SPEF "ieee 1481-1999"
*DESIGN "cbx_1__1_"
*DATE "11:11:11 Fri 11 11, 1111"
*VENDOR "OpenRCX"
*PROGRAM "Parallel Extraction"
*VERSION "1.0"
*DESIGN_FLOW "NAME_SCOPE LOCAL" "PIN_CAP NONE"
*DIVIDER /
*DELIMITER :
*BUS_DELIMITER []
*T_UNIT 1 NS
*C_UNIT 1 PF
*R_UNIT 1 OHM
*L_UNIT 1 HENRY

*NAME_MAP
*1 net86
*2 net85
*3 net84
*4 ccff_head
*5 ccff_tail
*6 chanx_left_in[0]
*7 chanx_left_in[10]
*8 chanx_left_in[11]
*9 chanx_left_in[12]
*10 chanx_left_in[13]
*11 chanx_left_in[14]
*12 chanx_left_in[15]
*13 chanx_left_in[16]
*14 chanx_left_in[17]
*15 chanx_left_in[18]
*16 chanx_left_in[19]
*17 chanx_left_in[1]
*18 chanx_left_in[2]
*19 chanx_left_in[3]
*20 chanx_left_in[4]
*21 chanx_left_in[5]
*22 chanx_left_in[6]
*23 chanx_left_in[7]
*24 chanx_left_in[8]
*25 chanx_left_in[9]
*26 chanx_left_out[0]
*27 chanx_left_out[10]
*28 chanx_left_out[11]
*29 chanx_left_out[12]
*30 chanx_left_out[13]
*31 chanx_left_out[14]
*32 chanx_left_out[15]
*33 chanx_left_out[16]
*34 chanx_left_out[17]
*35 chanx_left_out[18]
*36 chanx_left_out[19]
*37 chanx_left_out[1]
*38 chanx_left_out[2]
*39 chanx_left_out[3]
*40 chanx_left_out[4]
*41 chanx_left_out[5]
*42 chanx_left_out[6]
*43 chanx_left_out[7]
*44 chanx_left_out[8]
*45 chanx_left_out[9]
*46 chanx_right_in[0]
*47 chanx_right_in[10]
*48 chanx_right_in[11]
*49 chanx_right_in[12]
*50 chanx_right_in[13]
*51 chanx_right_in[14]
*52 chanx_right_in[15]
*53 chanx_right_in[16]
*54 chanx_right_in[17]
*55 chanx_right_in[18]
*56 chanx_right_in[19]
*57 chanx_right_in[1]
*58 chanx_right_in[2]
*59 chanx_right_in[3]
*60 chanx_right_in[4]
*61 chanx_right_in[5]
*62 chanx_right_in[6]
*63 chanx_right_in[7]
*64 chanx_right_in[8]
*65 chanx_right_in[9]
*66 chanx_right_out[0]
*67 chanx_right_out[10]
*68 chanx_right_out[11]
*69 chanx_right_out[12]
*70 chanx_right_out[13]
*71 chanx_right_out[14]
*72 chanx_right_out[15]
*73 chanx_right_out[16]
*74 chanx_right_out[17]
*75 chanx_right_out[18]
*76 chanx_right_out[19]
*77 chanx_right_out[1]
*78 chanx_right_out[2]
*79 chanx_right_out[3]
*80 chanx_right_out[4]
*81 chanx_right_out[5]
*82 chanx_right_out[6]
*83 chanx_right_out[7]
*84 chanx_right_out[8]
*85 chanx_right_out[9]
*86 pReset
*87 prog_clk
*88 net87
*89 net88
*90 net89
*93 _000_
*94 _001_
*95 _002_
*96 _003_
*97 _004_
*98 _005_
*99 _006_
*100 _007_
*101 _008_
*102 _009_
*103 _010_
*104 _011_
*105 _012_
*106 _013_
*107 _014_
*108 _015_
*109 _016_
*110 _017_
*111 _018_
*112 _019_
*113 _020_
*114 _021_
*115 _022_
*116 _023_
*117 _024_
*118 _025_
*119 _026_
*120 _027_
*121 _028_
*122 _029_
*123 _030_
*124 _031_
*125 _032_
*126 _033_
*127 _034_
*128 _035_
*129 _036_
*130 _037_
*131 _038_
*132 _039_
*133 clknet_0_prog_clk
*134 clknet_2_0__leaf_prog_clk
*135 clknet_2_1__leaf_prog_clk
*136 clknet_2_2__leaf_prog_clk
*137 clknet_2_3__leaf_prog_clk
*138 mem_bottom_ipin_0\.DFFR_0_\.Q
*139 mem_bottom_ipin_0\.DFFR_1_\.Q
*140 mem_bottom_ipin_0\.DFFR_2_\.Q
*141 mem_bottom_ipin_0\.DFFR_3_\.Q
*142 mem_bottom_ipin_0\.DFFR_4_\.Q
*143 mem_bottom_ipin_0\.DFFR_5_\.Q
*144 mem_bottom_ipin_1\.DFFR_0_\.Q
*145 mem_bottom_ipin_1\.DFFR_1_\.Q
*146 mem_bottom_ipin_1\.DFFR_2_\.Q
*147 mem_bottom_ipin_1\.DFFR_3_\.Q
*148 mem_bottom_ipin_1\.DFFR_4_\.Q
*149 mem_bottom_ipin_1\.DFFR_5_\.Q
*150 mem_bottom_ipin_2\.DFFR_0_\.Q
*151 mem_bottom_ipin_2\.DFFR_1_\.Q
*152 mem_bottom_ipin_2\.DFFR_2_\.Q
*153 mem_bottom_ipin_2\.DFFR_3_\.Q
*154 mem_bottom_ipin_2\.DFFR_4_\.Q
*155 mem_bottom_ipin_2\.DFFR_5_\.Q
*156 mem_top_ipin_0\.DFFR_0_\.Q
*157 mem_top_ipin_0\.DFFR_1_\.Q
*158 mem_top_ipin_0\.DFFR_2_\.Q
*159 mem_top_ipin_0\.DFFR_3_\.Q
*160 mem_top_ipin_0\.DFFR_4_\.Q
*161 mem_top_ipin_0\.DFFR_5_\.Q
*162 mem_top_ipin_1\.DFFR_0_\.Q
*163 mem_top_ipin_1\.DFFR_1_\.Q
*164 mem_top_ipin_1\.DFFR_2_\.Q
*165 mem_top_ipin_1\.DFFR_3_\.Q
*166 mem_top_ipin_1\.DFFR_4_\.Q
*167 mem_top_ipin_1\.DFFR_5_\.Q
*168 mem_top_ipin_2\.DFFR_0_\.Q
*169 mem_top_ipin_2\.DFFR_1_\.Q
*170 mem_top_ipin_2\.DFFR_2_\.Q
*171 mem_top_ipin_2\.DFFR_3_\.Q
*172 mem_top_ipin_2\.DFFR_4_\.Q
*173 net1
*174 net10
*175 net100
*176 net101
*177 net102
*178 net103
*179 net104
*180 net105
*181 net106
*182 net107
*183 net108
*184 net109
*185 net11
*186 net110
*187 net111
*188 net112
*189 net113
*190 net114
*191 net115
*192 net116
*193 net117
*194 net118
*195 net119
*196 net12
*197 net120
*198 net121
*199 net122
*200 net123
*201 net124
*202 net13
*203 net14
*204 net15
*205 net16
*206 net17
*207 net18
*208 net19
*209 net2
*210 net20
*211 net21
*212 net22
*213 net23
*214 net24
*215 net25
*216 net26
*217 net27
*218 net28
*219 net29
*220 net3
*221 net30
*222 net31
*223 net32
*224 net33
*225 net34
*226 net35
*227 net36
*228 net37
*229 net38
*230 net39
*231 net4
*232 net40
*233 net41
*234 net42
*235 net43
*236 net44
*237 net45
*238 net46
*239 net47
*240 net48
*241 net49
*242 net5
*243 net50
*244 net51
*245 net52
*246 net53
*247 net54
*248 net55
*249 net56
*250 net57
*251 net58
*252 net59
*253 net6
*254 net60
*255 net61
*256 net62
*257 net63
*258 net64
*259 net65
*260 net66
*261 net67
*262 net68
*263 net69
*264 net7
*265 net70
*266 net71
*267 net72
*268 net73
*269 net74
*270 net75
*271 net76
*272 net77
*273 net78
*274 net79
*275 net8
*276 net80
*277 net81
*278 net82
*279 net83
*280 net9
*281 net90
*282 net91
*283 net92
*284 net93
*285 net94
*286 net95
*287 net96
*288 net97
*289 net98
*290 net99
*291 ANTENNA__064__I
*292 ANTENNA__065__I
*293 ANTENNA__066__I
*294 ANTENNA__067__I
*295 ANTENNA__068__I
*296 ANTENNA__069__I
*297 ANTENNA__070__I
*298 ANTENNA__071__I
*299 ANTENNA__072__I
*300 ANTENNA__073__I
*301 ANTENNA__098__CLK
*302 ANTENNA__104__CLK
*303 ANTENNA__105__CLK
*304 ANTENNA__106__CLK
*305 ANTENNA__107__CLK
*306 ANTENNA__108__CLK
*307 ANTENNA__109__CLK
*308 ANTENNA__110__CLK
*309 ANTENNA__111__CLK
*310 ANTENNA_clkbuf_0_prog_clk_I
*311 ANTENNA_input10_I
*312 ANTENNA_input11_I
*313 ANTENNA_input12_I
*314 ANTENNA_input13_I
*315 ANTENNA_input14_I
*316 ANTENNA_input15_I
*317 ANTENNA_input16_I
*318 ANTENNA_input17_I
*319 ANTENNA_input18_I
*320 ANTENNA_input19_I
*321 ANTENNA_input1_I
*322 ANTENNA_input20_I
*323 ANTENNA_input21_I
*324 ANTENNA_input22_I
*325 ANTENNA_input23_I
*326 ANTENNA_input24_I
*327 ANTENNA_input25_I
*328 ANTENNA_input26_I
*329 ANTENNA_input27_I
*330 ANTENNA_input28_I
*331 ANTENNA_input29_I
*332 ANTENNA_input2_I
*333 ANTENNA_input30_I
*334 ANTENNA_input31_I
*335 ANTENNA_input32_I
*336 ANTENNA_input33_I
*337 ANTENNA_input34_I
*338 ANTENNA_input35_I
*339 ANTENNA_input36_I
*340 ANTENNA_input37_I
*341 ANTENNA_input38_I
*342 ANTENNA_input39_I
*343 ANTENNA_input3_I
*344 ANTENNA_input40_I
*345 ANTENNA_input41_I
*346 ANTENNA_input42_I
*347 ANTENNA_input4_I
*348 ANTENNA_input5_I
*349 ANTENNA_input6_I
*350 ANTENNA_input7_I
*351 ANTENNA_input8_I
*352 ANTENNA_input9_I
*353 FILLER_0_0_101
*354 FILLER_0_0_114
*355 FILLER_0_0_130
*356 FILLER_0_0_134
*357 FILLER_0_0_138
*358 FILLER_0_0_154
*359 FILLER_0_0_162
*360 FILLER_0_0_172
*361 FILLER_0_0_174
*362 FILLER_0_0_185
*363 FILLER_0_0_189
*364 FILLER_0_0_2
*365 FILLER_0_0_206
*366 FILLER_0_0_212
*367 FILLER_0_0_234
*368 FILLER_0_0_240
*369 FILLER_0_0_36
*370 FILLER_0_0_52
*371 FILLER_0_0_60
*372 FILLER_0_0_70
*373 FILLER_0_0_72
*374 FILLER_0_0_79
*375 FILLER_0_0_83
*376 FILLER_0_0_95
*377 FILLER_0_0_99
*378 FILLER_0_10_104
*379 FILLER_0_10_107
*380 FILLER_0_10_123
*381 FILLER_0_10_131
*382 FILLER_0_10_148
*383 FILLER_0_10_156
*384 FILLER_0_10_158
*385 FILLER_0_10_2
*386 FILLER_0_10_211
*387 FILLER_0_10_215
*388 FILLER_0_10_223
*389 FILLER_0_10_25
*390 FILLER_0_10_33
*391 FILLER_0_10_47
*392 FILLER_0_10_6
*393 FILLER_0_10_63
*394 FILLER_0_10_65
*395 FILLER_0_10_8
*396 FILLER_0_11_122
*397 FILLER_0_11_138
*398 FILLER_0_11_142
*399 FILLER_0_11_150
*400 FILLER_0_11_2
*401 FILLER_0_11_212
*402 FILLER_0_11_218
*403 FILLER_0_11_220
*404 FILLER_0_11_237
*405 FILLER_0_11_53
*406 FILLER_0_11_57
*407 FILLER_0_11_59
*408 FILLER_0_11_6
*409 FILLER_0_11_8
*410 FILLER_0_12_107
*411 FILLER_0_12_115
*412 FILLER_0_12_12
*413 FILLER_0_12_14
*414 FILLER_0_12_157
*415 FILLER_0_12_173
*416 FILLER_0_12_177
*417 FILLER_0_12_181
*418 FILLER_0_12_183
*419 FILLER_0_12_228
*420 FILLER_0_12_236
*421 FILLER_0_12_240
*422 FILLER_0_12_8
*423 FILLER_0_13_107
*424 FILLER_0_13_109
*425 FILLER_0_13_126
*426 FILLER_0_13_134
*427 FILLER_0_13_138
*428 FILLER_0_13_142
*429 FILLER_0_13_144
*430 FILLER_0_13_179
*431 FILLER_0_13_197
*432 FILLER_0_13_205
*433 FILLER_0_13_209
*434 FILLER_0_13_212
*435 FILLER_0_13_216
*436 FILLER_0_13_220
*437 FILLER_0_13_224
*438 FILLER_0_13_232
*439 FILLER_0_13_236
*440 FILLER_0_13_238
*441 FILLER_0_13_72
*442 FILLER_0_13_80
*443 FILLER_0_13_82
*444 FILLER_0_13_99
*445 FILLER_0_14_107
*446 FILLER_0_14_111
*447 FILLER_0_14_113
*448 FILLER_0_14_166
*449 FILLER_0_14_170
*450 FILLER_0_14_172
*451 FILLER_0_14_177
*452 FILLER_0_14_179
*453 FILLER_0_14_18
*454 FILLER_0_14_2
*455 FILLER_0_14_20
*456 FILLER_0_14_234
*457 FILLER_0_14_31
*458 FILLER_0_14_37
*459 FILLER_0_14_45
*460 FILLER_0_14_62
*461 FILLER_0_14_70
*462 FILLER_0_15_121
*463 FILLER_0_15_129
*464 FILLER_0_15_158
*465 FILLER_0_15_174
*466 FILLER_0_15_176
*467 FILLER_0_15_193
*468 FILLER_0_15_197
*469 FILLER_0_15_2
*470 FILLER_0_15_222
*471 FILLER_0_15_226
*472 FILLER_0_15_237
*473 FILLER_0_15_39
*474 FILLER_0_15_4
*475 FILLER_0_15_47
*476 FILLER_0_15_65
*477 FILLER_0_15_69
*478 FILLER_0_15_82
*479 FILLER_0_15_86
*480 FILLER_0_16_117
*481 FILLER_0_16_125
*482 FILLER_0_16_129
*483 FILLER_0_16_174
*484 FILLER_0_16_2
*485 FILLER_0_16_211
*486 FILLER_0_16_215
*487 FILLER_0_16_223
*488 FILLER_0_16_26
*489 FILLER_0_16_34
*490 FILLER_0_16_37
*491 FILLER_0_16_41
*492 FILLER_0_16_58
*493 FILLER_0_16_74
*494 FILLER_0_16_92
*495 FILLER_0_16_94
*496 FILLER_0_17_10
*497 FILLER_0_17_122
*498 FILLER_0_17_138
*499 FILLER_0_17_142
*500 FILLER_0_17_158
*501 FILLER_0_17_2
*502 FILLER_0_17_212
*503 FILLER_0_17_220
*504 FILLER_0_17_237
*505 FILLER_0_17_48
*506 FILLER_0_17_50
*507 FILLER_0_17_61
*508 FILLER_0_17_69
*509 FILLER_0_18_103
*510 FILLER_0_18_117
*511 FILLER_0_18_121
*512 FILLER_0_18_123
*513 FILLER_0_18_158
*514 FILLER_0_18_172
*515 FILLER_0_18_174
*516 FILLER_0_18_18
*517 FILLER_0_18_2
*518 FILLER_0_18_211
*519 FILLER_0_18_219
*520 FILLER_0_18_22
*521 FILLER_0_18_236
*522 FILLER_0_18_24
*523 FILLER_0_18_240
*524 FILLER_0_18_37
*525 FILLER_0_18_85
*526 FILLER_0_19_152
*527 FILLER_0_19_154
*528 FILLER_0_19_18
*529 FILLER_0_19_189
*530 FILLER_0_19_2
*531 FILLER_0_19_205
*532 FILLER_0_19_209
*533 FILLER_0_19_212
*534 FILLER_0_19_220
*535 FILLER_0_19_237
*536 FILLER_0_19_26
*537 FILLER_0_19_64
*538 FILLER_0_19_68
*539 FILLER_0_1_131
*540 FILLER_0_1_139
*541 FILLER_0_1_142
*542 FILLER_0_1_158
*543 FILLER_0_1_166
*544 FILLER_0_1_172
*545 FILLER_0_1_188
*546 FILLER_0_1_2
*547 FILLER_0_1_224
*548 FILLER_0_1_226
*549 FILLER_0_1_237
*550 FILLER_0_1_66
*551 FILLER_0_1_72
*552 FILLER_0_1_76
*553 FILLER_0_1_78
*554 FILLER_0_1_89
*555 FILLER_0_1_99
*556 FILLER_0_20_107
*557 FILLER_0_20_173
*558 FILLER_0_20_177
*559 FILLER_0_20_193
*560 FILLER_0_20_2
*561 FILLER_0_20_235
*562 FILLER_0_20_34
*563 FILLER_0_20_37
*564 FILLER_0_20_53
*565 FILLER_0_20_61
*566 FILLER_0_20_63
*567 FILLER_0_20_80
*568 FILLER_0_20_88
*569 FILLER_0_21_134
*570 FILLER_0_21_138
*571 FILLER_0_21_142
*572 FILLER_0_21_150
*573 FILLER_0_21_167
*574 FILLER_0_21_175
*575 FILLER_0_21_192
*576 FILLER_0_21_2
*577 FILLER_0_21_208
*578 FILLER_0_21_212
*579 FILLER_0_21_220
*580 FILLER_0_21_224
*581 FILLER_0_21_226
*582 FILLER_0_21_66
*583 FILLER_0_21_72
*584 FILLER_0_21_88
*585 FILLER_0_22_101
*586 FILLER_0_22_107
*587 FILLER_0_22_115
*588 FILLER_0_22_132
*589 FILLER_0_22_148
*590 FILLER_0_22_152
*591 FILLER_0_22_163
*592 FILLER_0_22_171
*593 FILLER_0_22_177
*594 FILLER_0_22_209
*595 FILLER_0_22_22
*596 FILLER_0_22_225
*597 FILLER_0_22_30
*598 FILLER_0_22_34
*599 FILLER_0_22_37
*600 FILLER_0_22_6
*601 FILLER_0_23_12
*602 FILLER_0_23_136
*603 FILLER_0_23_142
*604 FILLER_0_23_174
*605 FILLER_0_23_192
*606 FILLER_0_23_208
*607 FILLER_0_23_212
*608 FILLER_0_23_228
*609 FILLER_0_23_232
*610 FILLER_0_23_44
*611 FILLER_0_23_60
*612 FILLER_0_23_68
*613 FILLER_0_23_72
*614 FILLER_0_23_8
*615 FILLER_0_24_101
*616 FILLER_0_24_107
*617 FILLER_0_24_16
*618 FILLER_0_24_171
*619 FILLER_0_24_177
*620 FILLER_0_24_2
*621 FILLER_0_24_209
*622 FILLER_0_24_217
*623 FILLER_0_24_221
*624 FILLER_0_24_32
*625 FILLER_0_24_34
*626 FILLER_0_24_37
*627 FILLER_0_25_125
*628 FILLER_0_25_133
*629 FILLER_0_25_137
*630 FILLER_0_25_139
*631 FILLER_0_25_14
*632 FILLER_0_25_142
*633 FILLER_0_25_158
*634 FILLER_0_25_166
*635 FILLER_0_25_170
*636 FILLER_0_25_177
*637 FILLER_0_25_18
*638 FILLER_0_25_209
*639 FILLER_0_25_212
*640 FILLER_0_25_22
*641 FILLER_0_25_226
*642 FILLER_0_25_228
*643 FILLER_0_25_54
*644 FILLER_0_25_72
*645 FILLER_0_25_80
*646 FILLER_0_25_93
*647 FILLER_0_26_100
*648 FILLER_0_26_104
*649 FILLER_0_26_107
*650 FILLER_0_26_139
*651 FILLER_0_26_152
*652 FILLER_0_26_168
*653 FILLER_0_26_183
*654 FILLER_0_26_199
*655 FILLER_0_26_2
*656 FILLER_0_26_207
*657 FILLER_0_26_226
*658 FILLER_0_26_237
*659 FILLER_0_26_28
*660 FILLER_0_26_37
*661 FILLER_0_26_44
*662 FILLER_0_26_60
*663 FILLER_0_26_68
*664 FILLER_0_27_119
*665 FILLER_0_27_135
*666 FILLER_0_27_139
*667 FILLER_0_27_142
*668 FILLER_0_27_158
*669 FILLER_0_27_16
*670 FILLER_0_27_166
*671 FILLER_0_27_170
*672 FILLER_0_27_172
*673 FILLER_0_27_179
*674 FILLER_0_27_18
*675 FILLER_0_27_195
*676 FILLER_0_27_2
*677 FILLER_0_27_212
*678 FILLER_0_27_223
*679 FILLER_0_27_237
*680 FILLER_0_27_37
*681 FILLER_0_27_69
*682 FILLER_0_27_72
*683 FILLER_0_27_76
*684 FILLER_0_27_87
*685 FILLER_0_28_101
*686 FILLER_0_28_107
*687 FILLER_0_28_119
*688 FILLER_0_28_123
*689 FILLER_0_28_131
*690 FILLER_0_28_139
*691 FILLER_0_28_151
*692 FILLER_0_28_163
*693 FILLER_0_28_167
*694 FILLER_0_28_171
*695 FILLER_0_28_187
*696 FILLER_0_28_191
*697 FILLER_0_28_2
*698 FILLER_0_28_203
*699 FILLER_0_28_217
*700 FILLER_0_28_237
*701 FILLER_0_28_28
*702 FILLER_0_28_32
*703 FILLER_0_28_43
*704 FILLER_0_28_47
*705 FILLER_0_28_49
*706 FILLER_0_28_52
*707 FILLER_0_28_58
*708 FILLER_0_28_64
*709 FILLER_0_28_80
*710 FILLER_0_29_114
*711 FILLER_0_29_118
*712 FILLER_0_29_120
*713 FILLER_0_29_131
*714 FILLER_0_29_135
*715 FILLER_0_29_138
*716 FILLER_0_29_142
*717 FILLER_0_29_16
*718 FILLER_0_29_163
*719 FILLER_0_29_167
*720 FILLER_0_29_184
*721 FILLER_0_29_186
*722 FILLER_0_29_197
*723 FILLER_0_29_201
*724 FILLER_0_29_203
*725 FILLER_0_29_216
*726 FILLER_0_29_240
*727 FILLER_0_29_30
*728 FILLER_0_29_36
*729 FILLER_0_29_70
*730 FILLER_0_2_107
*731 FILLER_0_2_12
*732 FILLER_0_2_139
*733 FILLER_0_2_155
*734 FILLER_0_2_163
*735 FILLER_0_2_167
*736 FILLER_0_2_177
*737 FILLER_0_2_193
*738 FILLER_0_2_201
*739 FILLER_0_2_203
*740 FILLER_0_2_224
*741 FILLER_0_2_226
*742 FILLER_0_2_237
*743 FILLER_0_2_28
*744 FILLER_0_2_32
*745 FILLER_0_2_34
*746 FILLER_0_2_37
*747 FILLER_0_2_69
*748 FILLER_0_2_73
*749 FILLER_0_2_8
*750 FILLER_0_2_81
*751 FILLER_0_2_97
*752 FILLER_0_3_121
*753 FILLER_0_3_137
*754 FILLER_0_3_139
*755 FILLER_0_3_142
*756 FILLER_0_3_16
*757 FILLER_0_3_174
*758 FILLER_0_3_190
*759 FILLER_0_3_198
*760 FILLER_0_3_222
*761 FILLER_0_3_226
*762 FILLER_0_3_237
*763 FILLER_0_3_48
*764 FILLER_0_3_64
*765 FILLER_0_3_68
*766 FILLER_0_3_72
*767 FILLER_0_3_82
*768 FILLER_0_3_89
*769 FILLER_0_4_101
*770 FILLER_0_4_107
*771 FILLER_0_4_12
*772 FILLER_0_4_14
*773 FILLER_0_4_171
*774 FILLER_0_4_177
*775 FILLER_0_4_185
*776 FILLER_0_4_189
*777 FILLER_0_4_191
*778 FILLER_0_4_228
*779 FILLER_0_4_33
*780 FILLER_0_4_37
*781 FILLER_0_4_8
*782 FILLER_0_5_136
*783 FILLER_0_5_142
*784 FILLER_0_5_158
*785 FILLER_0_5_16
*786 FILLER_0_5_166
*787 FILLER_0_5_170
*788 FILLER_0_5_188
*789 FILLER_0_5_196
*790 FILLER_0_5_228
*791 FILLER_0_5_232
*792 FILLER_0_5_234
*793 FILLER_0_5_237
*794 FILLER_0_5_48
*795 FILLER_0_5_64
*796 FILLER_0_5_68
*797 FILLER_0_5_72
*798 FILLER_0_6_101
*799 FILLER_0_6_107
*800 FILLER_0_6_115
*801 FILLER_0_6_132
*802 FILLER_0_6_140
*803 FILLER_0_6_160
*804 FILLER_0_6_168
*805 FILLER_0_6_172
*806 FILLER_0_6_174
*807 FILLER_0_6_177
*808 FILLER_0_6_185
*809 FILLER_0_6_189
*810 FILLER_0_6_191
*811 FILLER_0_6_22
*812 FILLER_0_6_226
*813 FILLER_0_6_237
*814 FILLER_0_6_26
*815 FILLER_0_6_34
*816 FILLER_0_6_37
*817 FILLER_0_7_104
*818 FILLER_0_7_142
*819 FILLER_0_7_146
*820 FILLER_0_7_185
*821 FILLER_0_7_193
*822 FILLER_0_7_197
*823 FILLER_0_7_2
*824 FILLER_0_7_212
*825 FILLER_0_7_214
*826 FILLER_0_7_217
*827 FILLER_0_7_237
*828 FILLER_0_7_38
*829 FILLER_0_8_107
*830 FILLER_0_8_117
*831 FILLER_0_8_164
*832 FILLER_0_8_168
*833 FILLER_0_8_172
*834 FILLER_0_8_174
*835 FILLER_0_8_177
*836 FILLER_0_8_181
*837 FILLER_0_8_2
*838 FILLER_0_8_22
*839 FILLER_0_8_237
*840 FILLER_0_8_30
*841 FILLER_0_8_34
*842 FILLER_0_8_37
*843 FILLER_0_8_45
*844 FILLER_0_8_6
*845 FILLER_0_8_62
*846 FILLER_0_8_70
*847 FILLER_0_9_212
*848 FILLER_0_9_216
*849 FILLER_0_9_220
*850 FILLER_0_9_237
*851 FILLER_0_9_59
*852 FILLER_0_9_67
*853 FILLER_0_9_69
*854 FILLER_0_9_72
*855 FILLER_0_9_8
*856 FILLER_0_9_80
*857 FILLER_0_9_82
*858 FILLER_0_9_99
*859 PHY_EDGE_ROW_0_Left_30
*860 PHY_EDGE_ROW_0_Right_0
*861 PHY_EDGE_ROW_10_Left_40
*862 PHY_EDGE_ROW_10_Right_10
*863 PHY_EDGE_ROW_11_Left_41
*864 PHY_EDGE_ROW_11_Right_11
*865 PHY_EDGE_ROW_12_Left_42
*866 PHY_EDGE_ROW_12_Right_12
*867 PHY_EDGE_ROW_13_Left_43
*868 PHY_EDGE_ROW_13_Right_13
*869 PHY_EDGE_ROW_14_Left_44
*870 PHY_EDGE_ROW_14_Right_14
*871 PHY_EDGE_ROW_15_Left_45
*872 PHY_EDGE_ROW_15_Right_15
*873 PHY_EDGE_ROW_16_Left_46
*874 PHY_EDGE_ROW_16_Right_16
*875 PHY_EDGE_ROW_17_Left_47
*876 PHY_EDGE_ROW_17_Right_17
*877 PHY_EDGE_ROW_18_Left_48
*878 PHY_EDGE_ROW_18_Right_18
*879 PHY_EDGE_ROW_19_Left_49
*880 PHY_EDGE_ROW_19_Right_19
*881 PHY_EDGE_ROW_1_Left_31
*882 PHY_EDGE_ROW_1_Right_1
*883 PHY_EDGE_ROW_20_Left_50
*884 PHY_EDGE_ROW_20_Right_20
*885 PHY_EDGE_ROW_21_Left_51
*886 PHY_EDGE_ROW_21_Right_21
*887 PHY_EDGE_ROW_22_Left_52
*888 PHY_EDGE_ROW_22_Right_22
*889 PHY_EDGE_ROW_23_Left_53
*890 PHY_EDGE_ROW_23_Right_23
*891 PHY_EDGE_ROW_24_Left_54
*892 PHY_EDGE_ROW_24_Right_24
*893 PHY_EDGE_ROW_25_Left_55
*894 PHY_EDGE_ROW_25_Right_25
*895 PHY_EDGE_ROW_26_Left_56
*896 PHY_EDGE_ROW_26_Right_26
*897 PHY_EDGE_ROW_27_Left_57
*898 PHY_EDGE_ROW_27_Right_27
*899 PHY_EDGE_ROW_28_Left_58
*900 PHY_EDGE_ROW_28_Right_28
*901 PHY_EDGE_ROW_29_Left_59
*902 PHY_EDGE_ROW_29_Right_29
*903 PHY_EDGE_ROW_2_Left_32
*904 PHY_EDGE_ROW_2_Right_2
*905 PHY_EDGE_ROW_3_Left_33
*906 PHY_EDGE_ROW_3_Right_3
*907 PHY_EDGE_ROW_4_Left_34
*908 PHY_EDGE_ROW_4_Right_4
*909 PHY_EDGE_ROW_5_Left_35
*910 PHY_EDGE_ROW_5_Right_5
*911 PHY_EDGE_ROW_6_Left_36
*912 PHY_EDGE_ROW_6_Right_6
*913 PHY_EDGE_ROW_7_Left_37
*914 PHY_EDGE_ROW_7_Right_7
*915 PHY_EDGE_ROW_8_Left_38
*916 PHY_EDGE_ROW_8_Right_8
*917 PHY_EDGE_ROW_9_Left_39
*918 PHY_EDGE_ROW_9_Right_9
*919 TAP_TAPCELL_ROW_0_60
*920 TAP_TAPCELL_ROW_0_61
*921 TAP_TAPCELL_ROW_0_62
*922 TAP_TAPCELL_ROW_0_63
*923 TAP_TAPCELL_ROW_0_64
*924 TAP_TAPCELL_ROW_0_65
*925 TAP_TAPCELL_ROW_0_66
*926 TAP_TAPCELL_ROW_10_94
*927 TAP_TAPCELL_ROW_10_95
*928 TAP_TAPCELL_ROW_10_96
*929 TAP_TAPCELL_ROW_11_97
*930 TAP_TAPCELL_ROW_11_98
*931 TAP_TAPCELL_ROW_11_99
*932 TAP_TAPCELL_ROW_12_100
*933 TAP_TAPCELL_ROW_12_101
*934 TAP_TAPCELL_ROW_12_102
*935 TAP_TAPCELL_ROW_13_103
*936 TAP_TAPCELL_ROW_13_104
*937 TAP_TAPCELL_ROW_13_105
*938 TAP_TAPCELL_ROW_14_106
*939 TAP_TAPCELL_ROW_14_107
*940 TAP_TAPCELL_ROW_14_108
*941 TAP_TAPCELL_ROW_15_109
*942 TAP_TAPCELL_ROW_15_110
*943 TAP_TAPCELL_ROW_15_111
*944 TAP_TAPCELL_ROW_16_112
*945 TAP_TAPCELL_ROW_16_113
*946 TAP_TAPCELL_ROW_16_114
*947 TAP_TAPCELL_ROW_17_115
*948 TAP_TAPCELL_ROW_17_116
*949 TAP_TAPCELL_ROW_17_117
*950 TAP_TAPCELL_ROW_18_118
*951 TAP_TAPCELL_ROW_18_119
*952 TAP_TAPCELL_ROW_18_120
*953 TAP_TAPCELL_ROW_19_121
*954 TAP_TAPCELL_ROW_19_122
*955 TAP_TAPCELL_ROW_19_123
*956 TAP_TAPCELL_ROW_1_67
*957 TAP_TAPCELL_ROW_1_68
*958 TAP_TAPCELL_ROW_1_69
*959 TAP_TAPCELL_ROW_20_124
*960 TAP_TAPCELL_ROW_20_125
*961 TAP_TAPCELL_ROW_20_126
*962 TAP_TAPCELL_ROW_21_127
*963 TAP_TAPCELL_ROW_21_128
*964 TAP_TAPCELL_ROW_21_129
*965 TAP_TAPCELL_ROW_22_130
*966 TAP_TAPCELL_ROW_22_131
*967 TAP_TAPCELL_ROW_22_132
*968 TAP_TAPCELL_ROW_23_133
*969 TAP_TAPCELL_ROW_23_134
*970 TAP_TAPCELL_ROW_23_135
*971 TAP_TAPCELL_ROW_24_136
*972 TAP_TAPCELL_ROW_24_137
*973 TAP_TAPCELL_ROW_24_138
*974 TAP_TAPCELL_ROW_25_139
*975 TAP_TAPCELL_ROW_25_140
*976 TAP_TAPCELL_ROW_25_141
*977 TAP_TAPCELL_ROW_26_142
*978 TAP_TAPCELL_ROW_26_143
*979 TAP_TAPCELL_ROW_26_144
*980 TAP_TAPCELL_ROW_27_145
*981 TAP_TAPCELL_ROW_27_146
*982 TAP_TAPCELL_ROW_27_147
*983 TAP_TAPCELL_ROW_28_148
*984 TAP_TAPCELL_ROW_28_149
*985 TAP_TAPCELL_ROW_28_150
*986 TAP_TAPCELL_ROW_29_151
*987 TAP_TAPCELL_ROW_29_152
*988 TAP_TAPCELL_ROW_29_153
*989 TAP_TAPCELL_ROW_29_154
*990 TAP_TAPCELL_ROW_29_155
*991 TAP_TAPCELL_ROW_29_156
*992 TAP_TAPCELL_ROW_29_157
*993 TAP_TAPCELL_ROW_2_70
*994 TAP_TAPCELL_ROW_2_71
*995 TAP_TAPCELL_ROW_2_72
*996 TAP_TAPCELL_ROW_3_73
*997 TAP_TAPCELL_ROW_3_74
*998 TAP_TAPCELL_ROW_3_75
*999 TAP_TAPCELL_ROW_4_76
*1000 TAP_TAPCELL_ROW_4_77
*1001 TAP_TAPCELL_ROW_4_78
*1002 TAP_TAPCELL_ROW_5_79
*1003 TAP_TAPCELL_ROW_5_80
*1004 TAP_TAPCELL_ROW_5_81
*1005 TAP_TAPCELL_ROW_6_82
*1006 TAP_TAPCELL_ROW_6_83
*1007 TAP_TAPCELL_ROW_6_84
*1008 TAP_TAPCELL_ROW_7_85
*1009 TAP_TAPCELL_ROW_7_86
*1010 TAP_TAPCELL_ROW_7_87
*1011 TAP_TAPCELL_ROW_8_88
*1012 TAP_TAPCELL_ROW_8_89
*1013 TAP_TAPCELL_ROW_8_90
*1014 TAP_TAPCELL_ROW_9_91
*1015 TAP_TAPCELL_ROW_9_92
*1016 TAP_TAPCELL_ROW_9_93
*1017 _040_
*1018 _041_
*1019 _042_
*1020 _043_
*1021 _044_
*1022 _045_
*1023 _046_
*1024 _047_
*1025 _048_
*1026 _049_
*1027 _050_
*1028 _051_
*1029 _052_
*1030 _053_
*1031 _054_
*1032 _055_
*1033 _056_
*1034 _057_
*1035 _058_
*1036 _059_
*1037 _060_
*1038 _061_
*1039 _062_
*1040 _063_
*1041 _064_
*1042 _065_
*1043 _066_
*1044 _067_
*1045 _068_
*1046 _069_
*1047 _070_
*1048 _071_
*1049 _072_
*1050 _073_
*1051 _074_
*1052 _075_
*1053 _076_
*1054 _077_
*1055 _078_
*1056 _079_
*1057 _080_
*1058 _081_
*1059 _082_
*1060 _083_
*1061 _084_
*1062 _085_
*1063 _086_
*1064 _087_
*1065 _088_
*1066 _089_
*1067 _090_
*1068 _091_
*1069 _092_
*1070 _093_
*1071 _094_
*1072 _095_
*1073 _096_
*1074 _097_
*1075 _098_
*1076 _099_
*1077 _100_
*1078 _101_
*1079 _102_
*1080 _103_
*1081 _104_
*1082 _105_
*1083 _106_
*1084 _107_
*1085 _108_
*1086 _109_
*1087 _110_
*1088 _111_
*1089 _112_
*1090 _113_
*1091 _114_
*1092 _115_
*1093 _122_
*1094 _123_
*1095 _124_
*1096 _125_
*1097 _126_
*1098 _127_
*1099 _128_
*1100 _129_
*1101 _130_
*1102 _131_
*1103 _132_
*1104 _133_
*1105 _134_
*1106 _135_
*1107 _136_
*1108 _137_
*1109 _138_
*1110 _139_
*1111 _140_
*1112 _141_
*1113 _142_
*1114 _143_
*1115 _144_
*1116 _145_
*1117 _146_
*1118 _147_
*1119 _148_
*1120 _149_
*1121 _150_
*1122 _151_
*1123 _152_
*1124 _153_
*1125 _154_
*1126 _155_
*1127 _156_
*1128 _157_
*1129 _158_
*1130 _159_
*1131 _160_
*1132 _161_
*1133 cbx_1__1__84
*1134 cbx_1__1__85
*1135 cbx_1__1__86
*1136 cbx_1__1__87
*1137 cbx_1__1__88
*1138 cbx_1__1__89
*1139 clkbuf_0_prog_clk
*1140 clkbuf_2_0__f_prog_clk
*1141 clkbuf_2_1__f_prog_clk
*1142 clkbuf_2_2__f_prog_clk
*1143 clkbuf_2_3__f_prog_clk
*1144 hold1
*1145 hold10
*1146 hold11
*1147 hold12
*1148 hold13
*1149 hold14
*1150 hold15
*1151 hold16
*1152 hold17
*1153 hold18
*1154 hold19
*1155 hold2
*1156 hold20
*1157 hold21
*1158 hold22
*1159 hold23
*1160 hold24
*1161 hold25
*1162 hold26
*1163 hold27
*1164 hold28
*1165 hold29
*1166 hold3
*1167 hold30
*1168 hold31
*1169 hold32
*1170 hold33
*1171 hold34
*1172 hold35
*1173 hold4
*1174 hold5
*1175 hold6
*1176 hold7
*1177 hold8
*1178 hold9
*1179 input1
*1180 input10
*1181 input11
*1182 input12
*1183 input13
*1184 input14
*1185 input15
*1186 input16
*1187 input17
*1188 input18
*1189 input19
*1190 input2
*1191 input20
*1192 input21
*1193 input22
*1194 input23
*1195 input24
*1196 input25
*1197 input26
*1198 input27
*1199 input28
*1200 input29
*1201 input3
*1202 input30
*1203 input31
*1204 input32
*1205 input33
*1206 input34
*1207 input35
*1208 input36
*1209 input37
*1210 input38
*1211 input39
*1212 input4
*1213 input40
*1214 input41
*1215 input42
*1216 input5
*1217 input6
*1218 input7
*1219 input8
*1220 input9
*1221 output43
*1222 output44
*1223 output45
*1224 output46
*1225 output47
*1226 output48
*1227 output49
*1228 output50
*1229 output51
*1230 output52
*1231 output53
*1232 output54
*1233 output55
*1234 output56
*1235 output57
*1236 output58
*1237 output59
*1238 output60
*1239 output61
*1240 output62
*1241 output63
*1242 output64
*1243 output65
*1244 output66
*1245 output67
*1246 output68
*1247 output69
*1248 output70
*1249 output71
*1250 output72
*1251 output73
*1252 output74
*1253 output75
*1254 output76
*1255 output77
*1256 output78
*1257 output79
*1258 output80
*1259 output81
*1260 output82
*1261 output83

*PORTS
bottom_grid_top_width_0_height_0_subtile_0__pin_I_0_ O
bottom_grid_top_width_0_height_0_subtile_0__pin_I_4_ O
bottom_grid_top_width_0_height_0_subtile_0__pin_I_8_ O
ccff_head I
ccff_tail O
chanx_left_in[0] I
chanx_left_in[10] I
chanx_left_in[11] I
chanx_left_in[12] I
chanx_left_in[13] I
chanx_left_in[14] I
chanx_left_in[15] I
chanx_left_in[16] I
chanx_left_in[17] I
chanx_left_in[18] I
chanx_left_in[19] I
chanx_left_in[1] I
chanx_left_in[2] I
chanx_left_in[3] I
chanx_left_in[4] I
chanx_left_in[5] I
chanx_left_in[6] I
chanx_left_in[7] I
chanx_left_in[8] I
chanx_left_in[9] I
chanx_left_out[0] O
chanx_left_out[10] O
chanx_left_out[11] O
chanx_left_out[12] O
chanx_left_out[13] O
chanx_left_out[14] O
chanx_left_out[15] O
chanx_left_out[16] O
chanx_left_out[17] O
chanx_left_out[18] O
chanx_left_out[19] O
chanx_left_out[1] O
chanx_left_out[2] O
chanx_left_out[3] O
chanx_left_out[4] O
chanx_left_out[5] O
chanx_left_out[6] O
chanx_left_out[7] O
chanx_left_out[8] O
chanx_left_out[9] O
chanx_right_in[0] I
chanx_right_in[10] I
chanx_right_in[11] I
chanx_right_in[12] I
chanx_right_in[13] I
chanx_right_in[14] I
chanx_right_in[15] I
chanx_right_in[16] I
chanx_right_in[17] I
chanx_right_in[18] I
chanx_right_in[19] I
chanx_right_in[1] I
chanx_right_in[2] I
chanx_right_in[3] I
chanx_right_in[4] I
chanx_right_in[5] I
chanx_right_in[6] I
chanx_right_in[7] I
chanx_right_in[8] I
chanx_right_in[9] I
chanx_right_out[0] O
chanx_right_out[10] O
chanx_right_out[11] O
chanx_right_out[12] O
chanx_right_out[13] O
chanx_right_out[14] O
chanx_right_out[15] O
chanx_right_out[16] O
chanx_right_out[17] O
chanx_right_out[18] O
chanx_right_out[19] O
chanx_right_out[1] O
chanx_right_out[2] O
chanx_right_out[3] O
chanx_right_out[4] O
chanx_right_out[5] O
chanx_right_out[6] O
chanx_right_out[7] O
chanx_right_out[8] O
chanx_right_out[9] O
pReset I
prog_clk I
top_grid_bottom_width_0_height_0_subtile_0__pin_I_10_ O
top_grid_bottom_width_0_height_0_subtile_0__pin_I_2_ O
top_grid_bottom_width_0_height_0_subtile_0__pin_I_6_ O

*D_NET *1 0.000599868
*CONN
*P bottom_grid_top_width_0_height_0_subtile_0__pin_I_0_ O
*I *1135:ZN O *D gf180mcu_fd_sc_mcu7t5v0__tiel
*CAP
1 bottom_grid_top_width_0_height_0_subtile_0__pin_I_0_ 0.000263528
2 *1135:ZN 0.000263528
3 bottom_grid_top_width_0_height_0_subtile_0__pin_I_0_ chanx_right_out[12] 7.28126e-05
*RES
1 *1135:ZN bottom_grid_top_width_0_height_0_subtile_0__pin_I_0_ 10.862 
*END

*D_NET *2 0.00193819
*CONN
*P bottom_grid_top_width_0_height_0_subtile_0__pin_I_4_ O
*I *1134:ZN O *D gf180mcu_fd_sc_mcu7t5v0__tiel
*CAP
1 bottom_grid_top_width_0_height_0_subtile_0__pin_I_4_ 0.000644708
2 *1134:ZN 0.000644708
3 bottom_grid_top_width_0_height_0_subtile_0__pin_I_4_ chanx_left_out[2] 0.00028776
4 bottom_grid_top_width_0_height_0_subtile_0__pin_I_4_ *312:I 1.52768e-05
5 bottom_grid_top_width_0_height_0_subtile_0__pin_I_4_ *1234:I 8.74908e-05
6 bottom_grid_top_width_0_height_0_subtile_0__pin_I_4_ *15:5 0.000258243
*RES
1 *1134:ZN bottom_grid_top_width_0_height_0_subtile_0__pin_I_4_ 10.314 
*END

*D_NET *3 0.000629634
*CONN
*P bottom_grid_top_width_0_height_0_subtile_0__pin_I_8_ O
*I *1133:ZN O *D gf180mcu_fd_sc_mcu7t5v0__tiel
*CAP
1 bottom_grid_top_width_0_height_0_subtile_0__pin_I_8_ 0.000288532
2 *1133:ZN 0.000288532
3 bottom_grid_top_width_0_height_0_subtile_0__pin_I_8_ *12:9 5.25699e-05
*RES
1 *1133:ZN bottom_grid_top_width_0_height_0_subtile_0__pin_I_8_ 10.938 
*END

*D_NET *4 0.00139636
*CONN
*P ccff_head I
*I *1179:I I *D gf180mcu_fd_sc_mcu7t5v0__clkbuf_1
*I *321:I I *D gf180mcu_fd_sc_mcu7t5v0__antenna
*CAP
1 ccff_head 0.000282157
2 *1179:I 1.71412e-05
3 *321:I 0.000122059
4 *4:9 0.000421357
5 *321:I *1164:I 0.000140143
6 *321:I *134:28 4.07337e-05
7 *1179:I *1062:D 4.58601e-06
8 *1179:I *1164:I 6.17803e-05
9 *1179:I *134:28 4.2318e-06
10 *4:9 *1062:D 6.7501e-05
11 *4:9 *1164:I 0.000234667
*RES
1 ccff_head *4:9 6.742 
2 *4:9 *321:I 14.64 
3 *4:9 *1179:I 4.728 
*END

*D_NET *5 0.00084272
*CONN
*P ccff_tail O
*I *1221:Z O *D gf180mcu_fd_sc_mcu7t5v0__buf_3
*CAP
1 ccff_tail 0.00042136
2 *1221:Z 0.00042136
*RES
1 *1221:Z ccff_tail 11.394 
*END

*D_NET *6 0.00192811
*CONN
*P chanx_left_in[0] I
*I *1190:I I *D gf180mcu_fd_sc_mcu7t5v0__clkbuf_1
*I *332:I I *D gf180mcu_fd_sc_mcu7t5v0__antenna
*CAP
1 chanx_left_in[0] 0.000764119
2 *1190:I 0.000116828
3 *332:I 0
4 *6:9 0.000880947
5 *1190:I *1098:I 2.17248e-05
6 *6:9 *1098:I 0
7 *6:9 *1198:I 3.78132e-05
8 *6:9 *1231:I 0
9 *6:9 *51:5 0.000106679
*RES
1 chanx_left_in[0] *6:9 5.51 
2 *6:9 *332:I 4.5 
3 *6:9 *1190:I 5.412 
*END

*D_NET *7 0.00263883
*CONN
*P chanx_left_in[10] I
*I *343:I I *D gf180mcu_fd_sc_mcu7t5v0__antenna
*I *1201:I I *D gf180mcu_fd_sc_mcu7t5v0__clkbuf_1
*CAP
1 chanx_left_in[10] 0.000496714
2 *343:I 0
3 *1201:I 0.000145731
4 *7:17 0.000642445
5 *1201:I *1096:I 0
6 *1201:I *1186:I 0.000324241
7 *1201:I *20:9 0.000147313
8 *7:17 *20:9 0.000875956
9 *7:17 *53:5 6.42645e-06
*RES
1 chanx_left_in[10] *7:17 5.662 
2 *7:17 *1201:I 14.868 
3 *7:17 *343:I 4.5 
*END

*D_NET *8 0.00213061
*CONN
*P chanx_left_in[11] I
*I *1212:I I *D gf180mcu_fd_sc_mcu7t5v0__clkbuf_1
*I *347:I I *D gf180mcu_fd_sc_mcu7t5v0__antenna
*CAP
1 chanx_left_in[11] 0.000480739
2 *1212:I 0.000139626
3 *347:I 7.9476e-05
4 *8:9 0.00069984
5 *347:I *1121:I 0.000171918
6 *347:I *1127:I 7.28389e-05
7 *347:I *1187:I 9.88736e-06
8 *1212:I *1098:I 0
9 *8:9 *329:I 7.12972e-05