*SPEF "ieee 1481-1999"
*DESIGN "cby_1__1_"
*DATE "11:11:11 Fri 11 11, 1111"
*VENDOR "OpenRCX"
*PROGRAM "Parallel Extraction"
*VERSION "1.0"
*DESIGN_FLOW "NAME_SCOPE LOCAL" "PIN_CAP NONE"
*DIVIDER /
*DELIMITER :
*BUS_DELIMITER []
*T_UNIT 1 NS
*C_UNIT 1 PF
*R_UNIT 1 OHM
*L_UNIT 1 HENRY

*NAME_MAP
*1 ccff_head
*2 ccff_tail
*3 chany_bottom_in[0]
*4 chany_bottom_in[10]
*5 chany_bottom_in[11]
*6 chany_bottom_in[12]
*7 chany_bottom_in[13]
*8 chany_bottom_in[14]
*9 chany_bottom_in[15]
*10 chany_bottom_in[16]
*11 chany_bottom_in[17]
*12 chany_bottom_in[18]
*13 chany_bottom_in[19]
*14 chany_bottom_in[1]
*15 chany_bottom_in[2]
*16 chany_bottom_in[3]
*17 chany_bottom_in[4]
*18 chany_bottom_in[5]
*19 chany_bottom_in[6]
*20 chany_bottom_in[7]
*21 chany_bottom_in[8]
*22 chany_bottom_in[9]
*23 chany_bottom_out[0]
*24 chany_bottom_out[10]
*25 chany_bottom_out[11]
*26 chany_bottom_out[12]
*27 chany_bottom_out[13]
*28 chany_bottom_out[14]
*29 chany_bottom_out[15]
*30 chany_bottom_out[16]
*31 chany_bottom_out[17]
*32 chany_bottom_out[18]
*33 chany_bottom_out[19]
*34 chany_bottom_out[1]
*35 chany_bottom_out[2]
*36 chany_bottom_out[3]
*37 chany_bottom_out[4]
*38 chany_bottom_out[5]
*39 chany_bottom_out[6]
*40 chany_bottom_out[7]
*41 chany_bottom_out[8]
*42 chany_bottom_out[9]
*43 chany_top_in[0]
*44 chany_top_in[10]
*45 chany_top_in[11]
*46 chany_top_in[12]
*47 chany_top_in[13]
*48 chany_top_in[14]
*49 chany_top_in[15]
*50 chany_top_in[16]
*51 chany_top_in[17]
*52 chany_top_in[18]
*53 chany_top_in[19]
*54 chany_top_in[1]
*55 chany_top_in[2]
*56 chany_top_in[3]
*57 chany_top_in[4]
*58 chany_top_in[5]
*59 chany_top_in[6]
*60 chany_top_in[7]
*61 chany_top_in[8]
*62 chany_top_in[9]
*63 chany_top_out[0]
*64 chany_top_out[10]
*65 chany_top_out[11]
*66 chany_top_out[12]
*67 chany_top_out[13]
*68 chany_top_out[14]
*69 chany_top_out[15]
*70 chany_top_out[16]
*71 chany_top_out[17]
*72 chany_top_out[18]
*73 chany_top_out[19]
*74 chany_top_out[1]
*75 chany_top_out[2]
*76 chany_top_out[3]
*77 chany_top_out[4]
*78 chany_top_out[5]
*79 chany_top_out[6]
*80 chany_top_out[7]
*81 chany_top_out[8]
*82 chany_top_out[9]
*83 net86
*84 net85
*85 net84
*86 pReset
*87 prog_clk
*88 net87
*89 net88
*90 net89
*93 _000_
*94 _001_
*95 _002_
*96 _003_
*97 _004_
*98 _005_
*99 _006_
*100 _007_
*101 _008_
*102 _009_
*103 _010_
*104 _011_
*105 _012_
*106 _013_
*107 _014_
*108 _015_
*109 _016_
*110 _017_
*111 _018_
*112 _019_
*113 _020_
*114 _021_
*115 _022_
*116 _023_
*117 _024_
*118 _025_
*119 _026_
*120 _027_
*121 _028_
*122 _029_
*123 _030_
*124 _031_
*125 _032_
*126 _033_
*127 _034_
*128 _035_
*129 _036_
*130 _037_
*131 _038_
*132 _039_
*133 clknet_0_prog_clk
*134 clknet_2_0__leaf_prog_clk
*135 clknet_2_1__leaf_prog_clk
*136 clknet_2_2__leaf_prog_clk
*137 clknet_2_3__leaf_prog_clk
*138 mem_left_ipin_0\.DFFR_0_\.Q
*139 mem_left_ipin_0\.DFFR_1_\.Q
*140 mem_left_ipin_0\.DFFR_2_\.Q
*141 mem_left_ipin_0\.DFFR_3_\.Q
*142 mem_left_ipin_0\.DFFR_4_\.Q
*143 mem_left_ipin_0\.DFFR_5_\.Q
*144 mem_left_ipin_1\.DFFR_0_\.Q
*145 mem_left_ipin_1\.DFFR_1_\.Q
*146 mem_left_ipin_1\.DFFR_2_\.Q
*147 mem_left_ipin_1\.DFFR_3_\.Q
*148 mem_left_ipin_1\.DFFR_4_\.Q
*149 mem_left_ipin_1\.DFFR_5_\.Q
*150 mem_left_ipin_2\.DFFR_0_\.Q
*151 mem_left_ipin_2\.DFFR_1_\.Q
*152 mem_left_ipin_2\.DFFR_2_\.Q
*153 mem_left_ipin_2\.DFFR_3_\.Q
*154 mem_left_ipin_2\.DFFR_4_\.Q
*155 mem_left_ipin_2\.DFFR_5_\.Q
*156 mem_right_ipin_0\.DFFR_0_\.Q
*157 mem_right_ipin_0\.DFFR_1_\.Q
*158 mem_right_ipin_0\.DFFR_2_\.Q
*159 mem_right_ipin_0\.DFFR_3_\.Q
*160 mem_right_ipin_0\.DFFR_4_\.Q
*161 mem_right_ipin_0\.DFFR_5_\.Q
*162 mem_right_ipin_1\.DFFR_0_\.Q
*163 mem_right_ipin_1\.DFFR_1_\.Q
*164 mem_right_ipin_1\.DFFR_2_\.Q
*165 mem_right_ipin_1\.DFFR_3_\.Q
*166 mem_right_ipin_1\.DFFR_4_\.Q
*167 mem_right_ipin_1\.DFFR_5_\.Q
*168 mem_right_ipin_2\.DFFR_0_\.Q
*169 mem_right_ipin_2\.DFFR_1_\.Q
*170 mem_right_ipin_2\.DFFR_2_\.Q
*171 mem_right_ipin_2\.DFFR_3_\.Q
*172 mem_right_ipin_2\.DFFR_4_\.Q
*173 net1
*174 net10
*175 net100
*176 net101
*177 net102
*178 net103
*179 net104
*180 net105
*181 net106
*182 net107
*183 net108
*184 net109
*185 net11
*186 net110
*187 net111
*188 net112
*189 net113
*190 net114
*191 net115
*192 net116
*193 net117
*194 net118
*195 net119
*196 net12
*197 net120
*198 net121
*199 net122
*200 net123
*201 net124
*202 net13
*203 net14
*204 net15
*205 net16
*206 net17
*207 net18
*208 net19
*209 net2
*210 net20
*211 net21
*212 net22
*213 net23
*214 net24
*215 net25
*216 net26
*217 net27
*218 net28
*219 net29
*220 net3
*221 net30
*222 net31
*223 net32
*224 net33
*225 net34
*226 net35
*227 net36
*228 net37
*229 net38
*230 net39
*231 net4
*232 net40
*233 net41
*234 net42
*235 net43
*236 net44
*237 net45
*238 net46
*239 net47
*240 net48
*241 net49
*242 net5
*243 net50
*244 net51
*245 net52
*246 net53
*247 net54
*248 net55
*249 net56
*250 net57
*251 net58
*252 net59
*253 net6
*254 net60
*255 net61
*256 net62
*257 net63
*258 net64
*259 net65
*260 net66
*261 net67
*262 net68
*263 net69
*264 net7
*265 net70
*266 net71
*267 net72
*268 net73
*269 net74
*270 net75
*271 net76
*272 net77
*273 net78
*274 net79
*275 net8
*276 net80
*277 net81
*278 net82
*279 net83
*280 net9
*281 net90
*282 net91
*283 net92
*284 net93
*285 net94
*286 net95
*287 net96
*288 net97
*289 net98
*290 net99
*291 ANTENNA__064__I
*292 ANTENNA__065__I
*293 ANTENNA__066__I
*294 ANTENNA__067__I
*295 ANTENNA__068__I
*296 ANTENNA__069__I
*297 ANTENNA__070__I
*298 ANTENNA__071__I
*299 ANTENNA__072__I
*300 ANTENNA__073__I
*301 ANTENNA__098__CLK
*302 ANTENNA__104__CLK
*303 ANTENNA__105__CLK
*304 ANTENNA__106__CLK
*305 ANTENNA__107__CLK
*306 ANTENNA__108__CLK
*307 ANTENNA__109__CLK
*308 ANTENNA__110__CLK
*309 ANTENNA__111__CLK
*310 ANTENNA_clkbuf_0_prog_clk_I
*311 ANTENNA_input10_I
*312 ANTENNA_input11_I
*313 ANTENNA_input12_I
*314 ANTENNA_input13_I
*315 ANTENNA_input14_I
*316 ANTENNA_input15_I
*317 ANTENNA_input16_I
*318 ANTENNA_input17_I
*319 ANTENNA_input18_I
*320 ANTENNA_input19_I
*321 ANTENNA_input1_I
*322 ANTENNA_input20_I
*323 ANTENNA_input21_I
*324 ANTENNA_input22_I
*325 ANTENNA_input23_I
*326 ANTENNA_input24_I
*327 ANTENNA_input25_I
*328 ANTENNA_input26_I
*329 ANTENNA_input27_I
*330 ANTENNA_input28_I
*331 ANTENNA_input29_I
*332 ANTENNA_input2_I
*333 ANTENNA_input30_I
*334 ANTENNA_input31_I
*335 ANTENNA_input32_I
*336 ANTENNA_input33_I
*337 ANTENNA_input34_I
*338 ANTENNA_input35_I
*339 ANTENNA_input36_I
*340 ANTENNA_input37_I
*341 ANTENNA_input38_I
*342 ANTENNA_input39_I
*343 ANTENNA_input3_I
*344 ANTENNA_input40_I
*345 ANTENNA_input41_I
*346 ANTENNA_input42_I
*347 ANTENNA_input4_I
*348 ANTENNA_input5_I
*349 ANTENNA_input6_I
*350 ANTENNA_input7_I
*351 ANTENNA_input8_I
*352 ANTENNA_input9_I
*353 FILLER_0_0_101
*354 FILLER_0_0_114
*355 FILLER_0_0_130
*356 FILLER_0_0_134
*357 FILLER_0_0_138
*358 FILLER_0_0_154
*359 FILLER_0_0_162
*360 FILLER_0_0_172
*361 FILLER_0_0_174
*362 FILLER_0_0_185
*363 FILLER_0_0_189
*364 FILLER_0_0_2
*365 FILLER_0_0_206
*366 FILLER_0_0_212
*367 FILLER_0_0_234
*368 FILLER_0_0_240
*369 FILLER_0_0_36
*370 FILLER_0_0_52
*371 FILLER_0_0_60
*372 FILLER_0_0_70
*373 FILLER_0_0_72
*374 FILLER_0_0_79
*375 FILLER_0_0_83
*376 FILLER_0_0_95
*377 FILLER_0_0_99
*378 FILLER_0_10_104
*379 FILLER_0_10_107
*380 FILLER_0_10_123
*381 FILLER_0_10_131
*382 FILLER_0_10_148
*383 FILLER_0_10_156
*384 FILLER_0_10_158
*385 FILLER_0_10_2
*386 FILLER_0_10_211
*387 FILLER_0_10_215
*388 FILLER_0_10_223
*389 FILLER_0_10_25
*390 FILLER_0_10_33
*391 FILLER_0_10_47
*392 FILLER_0_10_6
*393 FILLER_0_10_63
*394 FILLER_0_10_65
*395 FILLER_0_10_8
*396 FILLER_0_11_122
*397 FILLER_0_11_138
*398 FILLER_0_11_142
*399 FILLER_0_11_150
*400 FILLER_0_11_2
*401 FILLER_0_11_212
*402 FILLER_0_11_218
*403 FILLER_0_11_220
*404 FILLER_0_11_237
*405 FILLER_0_11_53
*406 FILLER_0_11_57
*407 FILLER_0_11_59
*408 FILLER_0_11_6
*409 FILLER_0_11_8
*410 FILLER_0_12_107
*411 FILLER_0_12_115
*412 FILLER_0_12_12
*413 FILLER_0_12_14
*414 FILLER_0_12_157
*415 FILLER_0_12_173
*416 FILLER_0_12_177
*417 FILLER_0_12_181
*418 FILLER_0_12_183
*419 FILLER_0_12_228
*420 FILLER_0_12_236
*421 FILLER_0_12_240
*422 FILLER_0_12_8
*423 FILLER_0_13_107
*424 FILLER_0_13_109
*425 FILLER_0_13_126
*426 FILLER_0_13_134
*427 FILLER_0_13_138
*428 FILLER_0_13_142
*429 FILLER_0_13_144
*430 FILLER_0_13_179
*431 FILLER_0_13_197
*432 FILLER_0_13_205
*433 FILLER_0_13_209
*434 FILLER_0_13_212
*435 FILLER_0_13_216
*436 FILLER_0_13_220
*437 FILLER_0_13_224
*438 FILLER_0_13_232
*439 FILLER_0_13_236
*440 FILLER_0_13_238
*441 FILLER_0_13_72
*442 FILLER_0_13_80
*443 FILLER_0_13_82
*444 FILLER_0_13_99
*445 FILLER_0_14_107
*446 FILLER_0_14_111
*447 FILLER_0_14_113
*448 FILLER_0_14_166
*449 FILLER_0_14_170
*450 FILLER_0_14_172
*451 FILLER_0_14_177
*452 FILLER_0_14_179
*453 FILLER_0_14_18
*454 FILLER_0_14_2
*455 FILLER_0_14_20
*456 FILLER_0_14_234
*457 FILLER_0_14_31
*458 FILLER_0_14_37
*459 FILLER_0_14_45
*460 FILLER_0_14_62
*461 FILLER_0_14_70
*462 FILLER_0_15_121
*463 FILLER_0_15_129
*464 FILLER_0_15_158
*465 FILLER_0_15_174
*466 FILLER_0_15_176
*467 FILLER_0_15_193
*468 FILLER_0_15_197
*469 FILLER_0_15_2
*470 FILLER_0_15_222
*471 FILLER_0_15_226
*472 FILLER_0_15_237
*473 FILLER_0_15_39
*474 FILLER_0_15_4
*475 FILLER_0_15_47
*476 FILLER_0_15_65
*477 FILLER_0_15_69
*478 FILLER_0_15_82
*479 FILLER_0_15_86
*480 FILLER_0_16_117
*481 FILLER_0_16_125
*482 FILLER_0_16_129
*483 FILLER_0_16_174
*484 FILLER_0_16_2
*485 FILLER_0_16_211
*486 FILLER_0_16_215
*487 FILLER_0_16_223
*488 FILLER_0_16_26
*489 FILLER_0_16_34
*490 FILLER_0_16_37
*491 FILLER_0_16_41
*492 FILLER_0_16_58
*493 FILLER_0_16_74
*494 FILLER_0_16_92
*495 FILLER_0_16_94
*496 FILLER_0_17_10
*497 FILLER_0_17_122
*498 FILLER_0_17_138
*499 FILLER_0_17_142
*500 FILLER_0_17_158
*501 FILLER_0_17_2
*502 FILLER_0_17_212
*503 FILLER_0_17_220
*504 FILLER_0_17_237
*505 FILLER_0_17_48
*506 FILLER_0_17_50
*507 FILLER_0_17_61
*508 FILLER_0_17_69
*509 FILLER_0_18_103
*510 FILLER_0_18_117
*511 FILLER_0_18_121
*512 FILLER_0_18_123
*513 FILLER_0_18_158
*514 FILLER_0_18_172
*515 FILLER_0_18_174
*516 FILLER_0_18_18
*517 FILLER_0_18_2
*518 FILLER_0_18_211
*519 FILLER_0_18_219
*520 FILLER_0_18_22
*521 FILLER_0_18_236
*522 FILLER_0_18_24
*523 FILLER_0_18_240
*524 FILLER_0_18_37
*525 FILLER_0_18_85
*526 FILLER_0_19_152
*527 FILLER_0_19_154
*528 FILLER_0_19_18
*529 FILLER_0_19_189
*530 FILLER_0_19_2
*531 FILLER_0_19_205
*532 FILLER_0_19_209
*533 FILLER_0_19_212
*534 FILLER_0_19_220
*535 FILLER_0_19_237
*536 FILLER_0_19_26
*537 FILLER_0_19_64
*538 FILLER_0_19_68
*539 FILLER_0_1_131
*540 FILLER_0_1_139
*541 FILLER_0_1_142
*542 FILLER_0_1_158
*543 FILLER_0_1_166
*544 FILLER_0_1_172
*545 FILLER_0_1_188
*546 FILLER_0_1_2
*547 FILLER_0_1_224
*548 FILLER_0_1_226
*549 FILLER_0_1_237
*550 FILLER_0_1_66
*551 FILLER_0_1_72
*552 FILLER_0_1_76
*553 FILLER_0_1_78
*554 FILLER_0_1_89
*555 FILLER_0_1_99
*556 FILLER_0_20_107
*557 FILLER_0_20_173
*558 FILLER_0_20_177
*559 FILLER_0_20_193
*560 FILLER_0_20_2
*561 FILLER_0_20_34
*562 FILLER_0_20_37
*563 FILLER_0_20_53
*564 FILLER_0_20_61
*565 FILLER_0_20_63
*566 FILLER_0_20_80
*567 FILLER_0_20_88
*568 FILLER_0_21_134
*569 FILLER_0_21_138
*570 FILLER_0_21_142
*571 FILLER_0_21_150
*572 FILLER_0_21_167
*573 FILLER_0_21_175
*574 FILLER_0_21_192
*575 FILLER_0_21_2
*576 FILLER_0_21_208
*577 FILLER_0_21_212
*578 FILLER_0_21_220
*579 FILLER_0_21_224
*580 FILLER_0_21_226
*581 FILLER_0_21_6
*582 FILLER_0_21_72
*583 FILLER_0_21_88
*584 FILLER_0_22_101
*585 FILLER_0_22_107
*586 FILLER_0_22_115
*587 FILLER_0_22_12
*588 FILLER_0_22_132
*589 FILLER_0_22_148
*590 FILLER_0_22_152
*591 FILLER_0_22_163
*592 FILLER_0_22_171
*593 FILLER_0_22_177
*594 FILLER_0_22_209
*595 FILLER_0_22_225
*596 FILLER_0_22_28
*597 FILLER_0_22_32
*598 FILLER_0_22_34
*599 FILLER_0_22_37
*600 FILLER_0_23_136
*601 FILLER_0_23_142
*602 FILLER_0_23_16
*603 FILLER_0_23_174
*604 FILLER_0_23_192
*605 FILLER_0_23_2
*606 FILLER_0_23_208
*607 FILLER_0_23_212
*608 FILLER_0_23_228
*609 FILLER_0_23_48
*610 FILLER_0_23_64
*611 FILLER_0_23_68
*612 FILLER_0_23_72
*613 FILLER_0_24_101
*614 FILLER_0_24_107
*615 FILLER_0_24_16
*616 FILLER_0_24_171
*617 FILLER_0_24_177
*618 FILLER_0_24_2
*619 FILLER_0_24_209
*620 FILLER_0_24_217
*621 FILLER_0_24_221
*622 FILLER_0_24_32
*623 FILLER_0_24_34
*624 FILLER_0_24_37
*625 FILLER_0_25_12
*626 FILLER_0_25_125
*627 FILLER_0_25_133
*628 FILLER_0_25_137
*629 FILLER_0_25_139
*630 FILLER_0_25_142
*631 FILLER_0_25_158
*632 FILLER_0_25_166
*633 FILLER_0_25_170
*634 FILLER_0_25_177
*635 FILLER_0_25_209
*636 FILLER_0_25_212
*637 FILLER_0_25_226
*638 FILLER_0_25_228
*639 FILLER_0_25_44
*640 FILLER_0_25_60
*641 FILLER_0_25_68
*642 FILLER_0_25_72
*643 FILLER_0_25_8
*644 FILLER_0_25_80
*645 FILLER_0_25_93
*646 FILLER_0_26_100
*647 FILLER_0_26_104
*648 FILLER_0_26_107
*649 FILLER_0_26_139
*650 FILLER_0_26_14
*651 FILLER_0_26_152
*652 FILLER_0_26_168
*653 FILLER_0_26_18
*654 FILLER_0_26_183
*655 FILLER_0_26_199
*656 FILLER_0_26_207
*657 FILLER_0_26_226
*658 FILLER_0_26_237
*659 FILLER_0_26_28
*660 FILLER_0_26_37
*661 FILLER_0_26_44
*662 FILLER_0_26_60
*663 FILLER_0_26_68
*664 FILLER_0_27_119
*665 FILLER_0_27_135
*666 FILLER_0_27_139
*667 FILLER_0_27_142
*668 FILLER_0_27_158
*669 FILLER_0_27_16
*670 FILLER_0_27_166
*671 FILLER_0_27_170
*672 FILLER_0_27_172
*673 FILLER_0_27_179
*674 FILLER_0_27_18
*675 FILLER_0_27_195
*676 FILLER_0_27_199
*677 FILLER_0_27_2
*678 FILLER_0_27_201
*679 FILLER_0_27_212
*680 FILLER_0_27_223
*681 FILLER_0_27_237
*682 FILLER_0_27_37
*683 FILLER_0_27_69
*684 FILLER_0_27_72
*685 FILLER_0_27_76
*686 FILLER_0_27_87
*687 FILLER_0_28_101
*688 FILLER_0_28_107
*689 FILLER_0_28_113
*690 FILLER_0_28_119
*691 FILLER_0_28_123
*692 FILLER_0_28_139
*693 FILLER_0_28_151
*694 FILLER_0_28_163
*695 FILLER_0_28_167
*696 FILLER_0_28_171
*697 FILLER_0_28_187
*698 FILLER_0_28_191
*699 FILLER_0_28_2
*700 FILLER_0_28_203
*701 FILLER_0_28_217
*702 FILLER_0_28_237
*703 FILLER_0_28_28
*704 FILLER_0_28_32
*705 FILLER_0_28_43
*706 FILLER_0_28_47
*707 FILLER_0_28_49
*708 FILLER_0_28_52
*709 FILLER_0_28_58
*710 FILLER_0_28_64
*711 FILLER_0_28_80
*712 FILLER_0_29_114
*713 FILLER_0_29_118
*714 FILLER_0_29_120
*715 FILLER_0_29_131
*716 FILLER_0_29_135
*717 FILLER_0_29_138
*718 FILLER_0_29_142
*719 FILLER_0_29_16
*720 FILLER_0_29_163
*721 FILLER_0_29_167
*722 FILLER_0_29_184
*723 FILLER_0_29_186
*724 FILLER_0_29_197
*725 FILLER_0_29_201
*726 FILLER_0_29_203
*727 FILLER_0_29_216
*728 FILLER_0_29_240
*729 FILLER_0_29_30
*730 FILLER_0_29_36
*731 FILLER_0_29_70
*732 FILLER_0_2_107
*733 FILLER_0_2_12
*734 FILLER_0_2_139
*735 FILLER_0_2_155
*736 FILLER_0_2_163
*737 FILLER_0_2_167
*738 FILLER_0_2_177
*739 FILLER_0_2_193
*740 FILLER_0_2_201
*741 FILLER_0_2_203
*742 FILLER_0_2_224
*743 FILLER_0_2_226
*744 FILLER_0_2_237
*745 FILLER_0_2_28
*746 FILLER_0_2_32
*747 FILLER_0_2_34
*748 FILLER_0_2_37
*749 FILLER_0_2_69
*750 FILLER_0_2_73
*751 FILLER_0_2_8
*752 FILLER_0_2_81
*753 FILLER_0_2_97
*754 FILLER_0_3_121
*755 FILLER_0_3_137
*756 FILLER_0_3_139
*757 FILLER_0_3_142
*758 FILLER_0_3_16
*759 FILLER_0_3_174
*760 FILLER_0_3_190
*761 FILLER_0_3_198
*762 FILLER_0_3_222
*763 FILLER_0_3_226
*764 FILLER_0_3_237
*765 FILLER_0_3_48
*766 FILLER_0_3_64
*767 FILLER_0_3_68
*768 FILLER_0_3_72
*769 FILLER_0_3_82
*770 FILLER_0_3_89
*771 FILLER_0_4_101
*772 FILLER_0_4_107
*773 FILLER_0_4_12
*774 FILLER_0_4_14
*775 FILLER_0_4_171
*776 FILLER_0_4_177
*777 FILLER_0_4_185
*778 FILLER_0_4_189
*779 FILLER_0_4_191
*780 FILLER_0_4_228
*781 FILLER_0_4_33
*782 FILLER_0_4_37
*783 FILLER_0_4_8
*784 FILLER_0_5_136
*785 FILLER_0_5_142
*786 FILLER_0_5_158
*787 FILLER_0_5_16
*788 FILLER_0_5_166
*789 FILLER_0_5_170
*790 FILLER_0_5_188
*791 FILLER_0_5_196
*792 FILLER_0_5_228
*793 FILLER_0_5_232
*794 FILLER_0_5_234
*795 FILLER_0_5_237
*796 FILLER_0_5_48
*797 FILLER_0_5_64
*798 FILLER_0_5_68
*799 FILLER_0_5_72
*800 FILLER_0_6_101
*801 FILLER_0_6_107
*802 FILLER_0_6_115
*803 FILLER_0_6_132
*804 FILLER_0_6_140
*805 FILLER_0_6_160
*806 FILLER_0_6_168
*807 FILLER_0_6_172
*808 FILLER_0_6_174
*809 FILLER_0_6_177
*810 FILLER_0_6_185
*811 FILLER_0_6_189
*812 FILLER_0_6_191
*813 FILLER_0_6_22
*814 FILLER_0_6_226
*815 FILLER_0_6_237
*816 FILLER_0_6_26
*817 FILLER_0_6_34
*818 FILLER_0_6_37
*819 FILLER_0_7_104
*820 FILLER_0_7_142
*821 FILLER_0_7_146
*822 FILLER_0_7_185
*823 FILLER_0_7_193
*824 FILLER_0_7_197
*825 FILLER_0_7_2
*826 FILLER_0_7_212
*827 FILLER_0_7_214
*828 FILLER_0_7_217
*829 FILLER_0_7_237
*830 FILLER_0_7_38
*831 FILLER_0_8_107
*832 FILLER_0_8_117
*833 FILLER_0_8_164
*834 FILLER_0_8_168
*835 FILLER_0_8_172
*836 FILLER_0_8_174
*837 FILLER_0_8_177
*838 FILLER_0_8_181
*839 FILLER_0_8_2
*840 FILLER_0_8_22
*841 FILLER_0_8_237
*842 FILLER_0_8_30
*843 FILLER_0_8_34
*844 FILLER_0_8_37
*845 FILLER_0_8_45
*846 FILLER_0_8_6
*847 FILLER_0_8_62
*848 FILLER_0_8_70
*849 FILLER_0_9_212
*850 FILLER_0_9_216
*851 FILLER_0_9_220
*852 FILLER_0_9_237
*853 FILLER_0_9_59
*854 FILLER_0_9_67
*855 FILLER_0_9_69
*856 FILLER_0_9_72
*857 FILLER_0_9_8
*858 FILLER_0_9_80
*859 FILLER_0_9_82
*860 FILLER_0_9_99
*861 PHY_EDGE_ROW_0_Left_30
*862 PHY_EDGE_ROW_0_Right_0
*863 PHY_EDGE_ROW_10_Left_40
*864 PHY_EDGE_ROW_10_Right_10
*865 PHY_EDGE_ROW_11_Left_41
*866 PHY_EDGE_ROW_11_Right_11
*867 PHY_EDGE_ROW_12_Left_42
*868 PHY_EDGE_ROW_12_Right_12
*869 PHY_EDGE_ROW_13_Left_43
*870 PHY_EDGE_ROW_13_Right_13
*871 PHY_EDGE_ROW_14_Left_44
*872 PHY_EDGE_ROW_14_Right_14
*873 PHY_EDGE_ROW_15_Left_45
*874 PHY_EDGE_ROW_15_Right_15
*875 PHY_EDGE_ROW_16_Left_46
*876 PHY_EDGE_ROW_16_Right_16
*877 PHY_EDGE_ROW_17_Left_47
*878 PHY_EDGE_ROW_17_Right_17
*879 PHY_EDGE_ROW_18_Left_48
*880 PHY_EDGE_ROW_18_Right_18
*881 PHY_EDGE_ROW_19_Left_49
*882 PHY_EDGE_ROW_19_Right_19
*883 PHY_EDGE_ROW_1_Left_31
*884 PHY_EDGE_ROW_1_Right_1
*885 PHY_EDGE_ROW_20_Left_50
*886 PHY_EDGE_ROW_20_Right_20
*887 PHY_EDGE_ROW_21_Left_51
*888 PHY_EDGE_ROW_21_Right_21
*889 PHY_EDGE_ROW_22_Left_52
*890 PHY_EDGE_ROW_22_Right_22
*891 PHY_EDGE_ROW_23_Left_53
*892 PHY_EDGE_ROW_23_Right_23
*893 PHY_EDGE_ROW_24_Left_54
*894 PHY_EDGE_ROW_24_Right_24
*895 PHY_EDGE_ROW_25_Left_55
*896 PHY_EDGE_ROW_25_Right_25
*897 PHY_EDGE_ROW_26_Left_56
*898 PHY_EDGE_ROW_26_Right_26
*899 PHY_EDGE_ROW_27_Left_57
*900 PHY_EDGE_ROW_27_Right_27
*901 PHY_EDGE_ROW_28_Left_58
*902 PHY_EDGE_ROW_28_Right_28
*903 PHY_EDGE_ROW_29_Left_59
*904 PHY_EDGE_ROW_29_Right_29
*905 PHY_EDGE_ROW_2_Left_32
*906 PHY_EDGE_ROW_2_Right_2
*907 PHY_EDGE_ROW_3_Left_33
*908 PHY_EDGE_ROW_3_Right_3
*909 PHY_EDGE_ROW_4_Left_34
*910 PHY_EDGE_ROW_4_Right_4
*911 PHY_EDGE_ROW_5_Left_35
*912 PHY_EDGE_ROW_5_Right_5
*913 PHY_EDGE_ROW_6_Left_36
*914 PHY_EDGE_ROW_6_Right_6
*915 PHY_EDGE_ROW_7_Left_37
*916 PHY_EDGE_ROW_7_Right_7
*917 PHY_EDGE_ROW_8_Left_38
*918 PHY_EDGE_ROW_8_Right_8
*919 PHY_EDGE_ROW_9_Left_39
*920 PHY_EDGE_ROW_9_Right_9
*921 TAP_TAPCELL_ROW_0_60
*922 TAP_TAPCELL_ROW_0_61
*923 TAP_TAPCELL_ROW_0_62
*924 TAP_TAPCELL_ROW_0_63
*925 TAP_TAPCELL_ROW_0_64
*926 TAP_TAPCELL_ROW_0_65
*927 TAP_TAPCELL_ROW_0_66
*928 TAP_TAPCELL_ROW_10_94
*929 TAP_TAPCELL_ROW_10_95
*930 TAP_TAPCELL_ROW_10_96
*931 TAP_TAPCELL_ROW_11_97
*932 TAP_TAPCELL_ROW_11_98
*933 TAP_TAPCELL_ROW_11_99
*934 TAP_TAPCELL_ROW_12_100
*935 TAP_TAPCELL_ROW_12_101
*936 TAP_TAPCELL_ROW_12_102
*937 TAP_TAPCELL_ROW_13_103
*938 TAP_TAPCELL_ROW_13_104
*939 TAP_TAPCELL_ROW_13_105
*940 TAP_TAPCELL_ROW_14_106
*941 TAP_TAPCELL_ROW_14_107
*942 TAP_TAPCELL_ROW_14_108
*943 TAP_TAPCELL_ROW_15_109
*944 TAP_TAPCELL_ROW_15_110
*945 TAP_TAPCELL_ROW_15_111
*946 TAP_TAPCELL_ROW_16_112
*947 TAP_TAPCELL_ROW_16_113
*948 TAP_TAPCELL_ROW_16_114
*949 TAP_TAPCELL_ROW_17_115
*950 TAP_TAPCELL_ROW_17_116
*951 TAP_TAPCELL_ROW_17_117
*952 TAP_TAPCELL_ROW_18_118
*953 TAP_TAPCELL_ROW_18_119
*954 TAP_TAPCELL_ROW_18_120
*955 TAP_TAPCELL_ROW_19_121
*956 TAP_TAPCELL_ROW_19_122
*957 TAP_TAPCELL_ROW_19_123
*958 TAP_TAPCELL_ROW_1_67
*959 TAP_TAPCELL_ROW_1_68
*960 TAP_TAPCELL_ROW_1_69
*961 TAP_TAPCELL_ROW_20_124
*962 TAP_TAPCELL_ROW_20_125
*963 TAP_TAPCELL_ROW_20_126
*964 TAP_TAPCELL_ROW_21_127
*965 TAP_TAPCELL_ROW_21_128
*966 TAP_TAPCELL_ROW_21_129
*967 TAP_TAPCELL_ROW_22_130
*968 TAP_TAPCELL_ROW_22_131
*969 TAP_TAPCELL_ROW_22_132
*970 TAP_TAPCELL_ROW_23_133
*971 TAP_TAPCELL_ROW_23_134
*972 TAP_TAPCELL_ROW_23_135
*973 TAP_TAPCELL_ROW_24_136
*974 TAP_TAPCELL_ROW_24_137
*975 TAP_TAPCELL_ROW_24_138
*976 TAP_TAPCELL_ROW_25_139
*977 TAP_TAPCELL_ROW_25_140
*978 TAP_TAPCELL_ROW_25_141
*979 TAP_TAPCELL_ROW_26_142
*980 TAP_TAPCELL_ROW_26_143
*981 TAP_TAPCELL_ROW_26_144
*982 TAP_TAPCELL_ROW_27_145
*983 TAP_TAPCELL_ROW_27_146
*984 TAP_TAPCELL_ROW_27_147
*985 TAP_TAPCELL_ROW_28_148
*986 TAP_TAPCELL_ROW_28_149
*987 TAP_TAPCELL_ROW_28_150
*988 TAP_TAPCELL_ROW_29_151
*989 TAP_TAPCELL_ROW_29_152
*990 TAP_TAPCELL_ROW_29_153
*991 TAP_TAPCELL_ROW_29_154
*992 TAP_TAPCELL_ROW_29_155
*993 TAP_TAPCELL_ROW_29_156
*994 TAP_TAPCELL_ROW_29_157
*995 TAP_TAPCELL_ROW_2_70
*996 TAP_TAPCELL_ROW_2_71
*997 TAP_TAPCELL_ROW_2_72
*998 TAP_TAPCELL_ROW_3_73
*999 TAP_TAPCELL_ROW_3_74
*1000 TAP_TAPCELL_ROW_3_75
*1001 TAP_TAPCELL_ROW_4_76
*1002 TAP_TAPCELL_ROW_4_77
*1003 TAP_TAPCELL_ROW_4_78
*1004 TAP_TAPCELL_ROW_5_79
*1005 TAP_TAPCELL_ROW_5_80
*1006 TAP_TAPCELL_ROW_5_81
*1007 TAP_TAPCELL_ROW_6_82
*1008 TAP_TAPCELL_ROW_6_83
*1009 TAP_TAPCELL_ROW_6_84
*1010 TAP_TAPCELL_ROW_7_85
*1011 TAP_TAPCELL_ROW_7_86
*1012 TAP_TAPCELL_ROW_7_87
*1013 TAP_TAPCELL_ROW_8_88
*1014 TAP_TAPCELL_ROW_8_89
*1015 TAP_TAPCELL_ROW_8_90
*1016 TAP_TAPCELL_ROW_9_91
*1017 TAP_TAPCELL_ROW_9_92
*1018 TAP_TAPCELL_ROW_9_93
*1019 _040_
*1020 _041_
*1021 _042_
*1022 _043_
*1023 _044_
*1024 _045_
*1025 _046_
*1026 _047_
*1027 _048_
*1028 _049_
*1029 _050_
*1030 _051_
*1031 _052_
*1032 _053_
*1033 _054_
*1034 _055_
*1035 _056_
*1036 _057_
*1037 _058_
*1038 _059_
*1039 _060_
*1040 _061_
*1041 _062_
*1042 _063_
*1043 _064_
*1044 _065_
*1045 _066_
*1046 _067_
*1047 _068_
*1048 _069_
*1049 _070_
*1050 _071_
*1051 _072_
*1052 _073_
*1053 _074_
*1054 _075_
*1055 _076_
*1056 _077_
*1057 _078_
*1058 _079_
*1059 _080_
*1060 _081_
*1061 _082_
*1062 _083_
*1063 _084_
*1064 _085_
*1065 _086_
*1066 _087_
*1067 _088_
*1068 _089_
*1069 _090_
*1070 _091_
*1071 _092_
*1072 _093_
*1073 _094_
*1074 _095_
*1075 _096_
*1076 _097_
*1077 _098_
*1078 _099_
*1079 _100_
*1080 _101_
*1081 _102_
*1082 _103_
*1083 _104_
*1084 _105_
*1085 _106_
*1086 _107_
*1087 _108_
*1088 _109_
*1089 _110_
*1090 _111_
*1091 _112_
*1092 _113_
*1093 _114_
*1094 _115_
*1095 _122_
*1096 _123_
*1097 _124_
*1098 _125_
*1099 _126_
*1100 _127_
*1101 _128_
*1102 _129_
*1103 _130_
*1104 _131_
*1105 _132_
*1106 _133_
*1107 _134_
*1108 _135_
*1109 _136_
*1110 _137_
*1111 _138_
*1112 _139_
*1113 _140_
*1114 _141_
*1115 _142_
*1116 _143_
*1117 _144_
*1118 _145_
*1119 _146_
*1120 _147_
*1121 _148_
*1122 _149_
*1123 _150_
*1124 _151_
*1125 _152_
*1126 _153_
*1127 _154_
*1128 _155_
*1129 _156_
*1130 _157_
*1131 _158_
*1132 _159_
*1133 _160_
*1134 _161_
*1135 cby_1__1__84
*1136 cby_1__1__85
*1137 cby_1__1__86
*1138 cby_1__1__87
*1139 cby_1__1__88
*1140 cby_1__1__89
*1141 clkbuf_0_prog_clk
*1142 clkbuf_2_0__f_prog_clk
*1143 clkbuf_2_1__f_prog_clk
*1144 clkbuf_2_2__f_prog_clk
*1145 clkbuf_2_3__f_prog_clk
*1146 hold1
*1147 hold10
*1148 hold11
*1149 hold12
*1150 hold13
*1151 hold14
*1152 hold15
*1153 hold16
*1154 hold17
*1155 hold18
*1156 hold19
*1157 hold2
*1158 hold20
*1159 hold21
*1160 hold22
*1161 hold23
*1162 hold24
*1163 hold25
*1164 hold26
*1165 hold27
*1166 hold28
*1167 hold29
*1168 hold3
*1169 hold30
*1170 hold31
*1171 hold32
*1172 hold33
*1173 hold34
*1174 hold35
*1175 hold4
*1176 hold5
*1177 hold6
*1178 hold7
*1179 hold8
*1180 hold9
*1181 input1
*1182 input10
*1183 input11
*1184 input12
*1185 input13
*1186 input14
*1187 input15
*1188 input16
*1189 input17
*1190 input18
*1191 input19
*1192 input2
*1193 input20
*1194 input21
*1195 input22
*1196 input23
*1197 input24
*1198 input25
*1199 input26
*1200 input27
*1201 input28
*1202 input29
*1203 input3
*1204 input30
*1205 input31
*1206 input32
*1207 input33
*1208 input34
*1209 input35
*1210 input36
*1211 input37
*1212 input38
*1213 input39
*1214 input4
*1215 input40
*1216 input41
*1217 input42
*1218 input5
*1219 input6
*1220 input7
*1221 input8
*1222 input9
*1223 output43
*1224 output44
*1225 output45
*1226 output46
*1227 output47
*1228 output48
*1229 output49
*1230 output50
*1231 output51
*1232 output52
*1233 output53
*1234 output54
*1235 output55
*1236 output56
*1237 output57
*1238 output58
*1239 output59
*1240 output60
*1241 output61
*1242 output62
*1243 output63
*1244 output64
*1245 output65
*1246 output66
*1247 output67
*1248 output68
*1249 output69
*1250 output70
*1251 output71
*1252 output72
*1253 output73
*1254 output74
*1255 output75
*1256 output76
*1257 output77
*1258 output78
*1259 output79
*1260 output80
*1261 output81
*1262 output82
*1263 output83

*PORTS
ccff_head I
ccff_tail O
chany_bottom_in[0] I
chany_bottom_in[10] I
chany_bottom_in[11] I
chany_bottom_in[12] I
chany_bottom_in[13] I
chany_bottom_in[14] I
chany_bottom_in[15] I
chany_bottom_in[16] I
chany_bottom_in[17] I
chany_bottom_in[18] I
chany_bottom_in[19] I
chany_bottom_in[1] I
chany_bottom_in[2] I
chany_bottom_in[3] I
chany_bottom_in[4] I
chany_bottom_in[5] I
chany_bottom_in[6] I
chany_bottom_in[7] I
chany_bottom_in[8] I
chany_bottom_in[9] I
chany_bottom_out[0] O
chany_bottom_out[10] O
chany_bottom_out[11] O
chany_bottom_out[12] O
chany_bottom_out[13] O
chany_bottom_out[14] O
chany_bottom_out[15] O
chany_bottom_out[16] O
chany_bottom_out[17] O
chany_bottom_out[18] O
chany_bottom_out[19] O
chany_bottom_out[1] O
chany_bottom_out[2] O
chany_bottom_out[3] O
chany_bottom_out[4] O
chany_bottom_out[5] O
chany_bottom_out[6] O
chany_bottom_out[7] O
chany_bottom_out[8] O
chany_bottom_out[9] O
chany_top_in[0] I
chany_top_in[10] I
chany_top_in[11] I
chany_top_in[12] I
chany_top_in[13] I
chany_top_in[14] I
chany_top_in[15] I
chany_top_in[16] I
chany_top_in[17] I
chany_top_in[18] I
chany_top_in[19] I
chany_top_in[1] I
chany_top_in[2] I
chany_top_in[3] I
chany_top_in[4] I
chany_top_in[5] I
chany_top_in[6] I
chany_top_in[7] I
chany_top_in[8] I
chany_top_in[9] I
chany_top_out[0] O
chany_top_out[10] O
chany_top_out[11] O
chany_top_out[12] O
chany_top_out[13] O
chany_top_out[14] O
chany_top_out[15] O
chany_top_out[16] O
chany_top_out[17] O
chany_top_out[18] O
chany_top_out[19] O
chany_top_out[1] O
chany_top_out[2] O
chany_top_out[3] O
chany_top_out[4] O
chany_top_out[5] O
chany_top_out[6] O
chany_top_out[7] O
chany_top_out[8] O
chany_top_out[9] O
left_grid_right_width_0_height_0_subtile_0__pin_I_1_ O
left_grid_right_width_0_height_0_subtile_0__pin_I_5_ O
left_grid_right_width_0_height_0_subtile_0__pin_I_9_ O
pReset I
prog_clk I
right_grid_left_width_0_height_0_subtile_0__pin_I_11_ O
right_grid_left_width_0_height_0_subtile_0__pin_I_3_ O
right_grid_left_width_0_height_0_subtile_0__pin_I_7_ O

*D_NET *1 0.00169082
*CONN
*P ccff_head I
*I *1181:I I *D gf180mcu_fd_sc_mcu7t5v0__clkbuf_1
*I *321:I I *D gf180mcu_fd_sc_mcu7t5v0__antenna
*CAP
1 ccff_head 0.000339295
2 *1181:I 2.16057e-05
3 *321:I 0.000153332
4 *1:9 0.000514232
5 *321:I *1166:I 0.000152523
6 *321:I *134:28 4.58772e-05
7 *1181:I *1064:D 4.67771e-06
8 *1181:I *1166:I 8.14957e-05
9 *1181:I *134:28 4.4504e-06
10 *1:9 *1064:D 7.11818e-05
11 *1:9 *1166:I 0.000302151
*RES
1 ccff_head *1:9 7.568 
2 *1:9 *321:I 15.06 
3 *1:9 *1181:I 4.812 
*END

*D_NET *2 0.000998769
*CONN
*P ccff_tail O
*I *1223:Z O *D gf180mcu_fd_sc_mcu7t5v0__buf_3
*CAP
1 ccff_tail 0.000499384
2 *1223:Z 0.000499384
*RES
1 *1223:Z ccff_tail 12.276 
*END

*D_NET *3 0.00218854
*CONN
*P chany_bottom_in[0] I
*I *1192:I I *D gf180mcu_fd_sc_mcu7t5v0__clkbuf_1
*I *332:I I *D gf180mcu_fd_sc_mcu7t5v0__antenna
*CAP
1 chany_bottom_in[0] 0.000876035
2 *1192:I 0.000129811
3 *332:I 0
4 *3:9 0.00100585
5 *1192:I *1100:I 2.36218e-05
6 *3:9 *1100:I 0
7 *3:9 *1200:I 3.96344e-05
8 *3:9 *1233:I 0
9 *3:9 *48:5 0.000113592
*RES
1 chany_bottom_in[0] *3:9 7.54 
2 *3:9 *332:I 4.5 
3 *3:9 *1192:I 5.748 
*END

*D_NET *4 0.00317316
*CONN
*P chany_bottom_in[10] I
*I *343:I I *D gf180mcu_fd_sc_mcu7t5v0__antenna
*I *1203:I I *D gf180mcu_fd_sc_mcu7t5v0__clkbuf_1
*CAP
1 chany_bottom_in[10] 0.000568877
2 *343:I 0
3 *1203:I 0.000186294
4 *4:17 0.000755171
5 *1203:I *317:I 0.000113027
6 *1203:I *1098:I 0
7 *1203:I *1188:I 0.000427061
8 *1203:I *1196:I 0
9 *1203:I *1245:I 0
10 *1203:I *17:9 8.14957e-05
11 *4:17 *17:9 0.00103439
12 *4:17 *50:5 6.84289e-06
*RES
1 chany_bottom_in[10] *4:17 7.748 
2 *4:17 *1203:I 15.372 
3 *4:17 *343:I 4.5 
*END

*D_NET *5 0.00246209
*CONN
*P chany_bottom_in[11] I
*I *1214:I I *D gf180mcu_fd_sc_mcu7t5v0__clkbuf_1
*I *347:I I *D gf180mcu_fd_sc_mcu7t5v0__antenna
*CAP
1 chany_bottom_in[11] 0.000556952
2 *1214:I 0.000164985
3 *347:I 0.000108659
4 *5:9 0.000830596
5 *347:I *1123:I 0.00019377
6 *347:I *1129:I 7.71048e-05
7 *347:I *1189:I 1.07369e-05
8 *1214:I *1100:I 0
9 *5:9 *329:I 7.65036e-05
10 *5:9 *1123:I 3.10787e-05
11 *5:9 *1189:I 0.000184523
12 *5:9 *18:5 0.000113592
13 *5:9 *48:5 0.000113592
*RES
1 chany_bottom_in[11] *5:9 6.292 
2 *5:9 *347:I 5.852 
3 *5:9 *1214:I 14.644 
*END

*D_NET *6 0.00112581
*CONN
*P chany_bottom_in[12] I
*I *1218:I I *D gf180mcu_fd_sc_mcu7t5v0__clkbuf_1
*I *348:I I *D gf180mcu_fd_sc_mcu7t5v0__antenna
*CAP
1 chany_bottom_in[12] 0.00034756
2 *1218:I 0.000194076
3 *348:I 0
4 *6:11 0.000541636
5 *1218:I *1105:I 1.53294e-05
6 *6:11 chany_bottom_out[9] 0
7 *6:11 chany_top_out[12] 2.72048e-05
*RES
1 chany_bottom_in[12] *6:11 7.048 
2 *6:11 *348:I 4.5 
3 *6:11 *1218:I 5.748 
*END

*D_NET *7 0.00173134
*CONN
*P chany_bottom_in[13] I
*I *1219:I I *D gf180mcu_fd_sc_mcu7t5v0__clkbuf_1
*I *349:I I *D gf180mcu_fd_sc_mcu7t5v0__antenna
*CAP
1 chany_bottom_in[13] 0.000452553
2 *1219:I 0
3 *349:I 0.000117303
4 *7:5 0.000569856
5 *349:I *1114:I 0.000167595
6 *349:I *1125:I 0.000211047
7 *7:5 right_grid_left_width_0_height_0_subtile_0__pin_I_7_ 5.7704e-05
8 *7:5 *324:I 0
9 *7:5 *1114:I 4.36433e-05
10 *7:5 *1125:I 6.55507e-05
11 *7:5 *22:9 4.60838e-05
*RES
1 chany_bottom_in[13] *7:5 3.38 
2 *7:5 *349:I 10.976 
3 *7:5 *1219:I 9 
*END

*D_NET *8 0.00137771
*CONN
*P chany_bottom_in[14] I