*SPEF "ieee 1481-1999"
*DESIGN "grid_clb"
*DATE "11:11:11 Fri 11 11, 1111"
*VENDOR "OpenRCX"
*PROGRAM "Parallel Extraction"
*VERSION "1.0"
*DESIGN_FLOW "NAME_SCOPE LOCAL" "PIN_CAP NONE"
*DIVIDER /
*DELIMITER :
*BUS_DELIMITER []
*T_UNIT 1 NS
*C_UNIT 1 PF
*R_UNIT 1 OHM
*L_UNIT 1 HENRY

*NAME_MAP
*1 bottom_width_0_height_0_subtile_0__pin_I_10_
*2 bottom_width_0_height_0_subtile_0__pin_I_2_
*3 bottom_width_0_height_0_subtile_0__pin_I_6_
*4 net7
*5 net6
*6 ccff_head
*7 ccff_tail
*8 clk
*9 left_width_0_height_0_subtile_0__pin_I_11_
*10 left_width_0_height_0_subtile_0__pin_I_3_
*11 left_width_0_height_0_subtile_0__pin_I_7_
*12 net5
*13 net4
*14 pReset
*15 prog_clk
*16 reset
*17 right_width_0_height_0_subtile_0__pin_I_1_
*18 right_width_0_height_0_subtile_0__pin_I_5_
*19 right_width_0_height_0_subtile_0__pin_I_9_
*20 net8
*21 net9
*22 set
*23 top_width_0_height_0_subtile_0__pin_I_0_
*24 top_width_0_height_0_subtile_0__pin_I_4_
*25 top_width_0_height_0_subtile_0__pin_I_8_
*26 net10
*27 net11
*28 top_width_0_height_0_subtile_0__pin_clk_0_
*31 _000_
*32 _001_
*33 _002_
*34 _003_
*35 _004_
*36 _005_
*37 _006_
*38 _007_
*39 _008_
*40 _009_
*41 _010_
*42 _011_
*43 _012_
*44 _013_
*45 _014_
*46 _015_
*47 _016_
*48 _017_
*49 _018_
*50 _019_
*51 _020_
*52 _021_
*53 _022_
*54 _023_
*55 _024_
*56 _025_
*57 _026_
*58 _027_
*59 _028_
*60 _029_
*61 _030_
*62 _031_
*63 _032_
*64 _033_
*65 _034_
*66 _035_
*67 _036_
*68 _037_
*69 _038_
*70 _039_
*71 _040_
*72 _041_
*73 _042_
*74 _043_
*75 _044_
*76 _045_
*77 _046_
*78 _047_
*79 _048_
*80 _049_
*81 _050_
*82 _051_
*83 _052_
*84 _053_
*85 _054_
*86 _055_
*87 _056_
*88 _057_
*89 _058_
*90 _059_
*91 _060_
*92 _061_
*93 _062_
*94 _063_
*95 _064_
*96 _065_
*97 _066_
*98 _067_
*99 _068_
*100 _069_
*101 _070_
*102 _071_
*103 _072_
*104 _073_
*105 _074_
*106 _075_
*107 _076_
*108 _077_
*109 _078_
*110 _079_
*111 _080_
*112 _081_
*113 _082_
*114 _083_
*115 _084_
*116 _085_
*117 _086_
*118 _087_
*119 _088_
*120 _089_
*121 _090_
*122 _091_
*123 _092_
*124 _093_
*125 _094_
*126 _095_
*127 _096_
*128 _097_
*129 _098_
*130 _099_
*131 _100_
*132 _101_
*133 _102_
*134 _103_
*135 _104_
*136 _105_
*137 _106_
*138 _107_
*139 _108_
*140 _109_
*141 _110_
*142 _111_
*143 _112_
*144 _113_
*145 _114_
*146 _115_
*147 _116_
*148 _117_
*149 _118_
*150 _119_
*151 _120_
*152 _121_
*153 _122_
*154 _123_
*155 _124_
*156 _125_
*157 _126_
*158 _127_
*159 _128_
*160 _129_
*161 _130_
*162 _131_
*163 _132_
*164 _133_
*165 _134_
*166 _135_
*167 _136_
*168 _137_
*169 _138_
*170 _139_
*171 _140_
*172 _141_
*173 _142_
*174 _143_
*175 _144_
*176 _145_
*177 _146_
*178 _147_
*179 _148_
*180 _149_
*181 _150_
*182 _151_
*183 _152_
*184 _153_
*185 _154_
*186 _155_
*187 _156_
*188 _157_
*189 _158_
*190 _159_
*191 _160_
*192 _161_
*193 _162_
*194 _163_
*195 _164_
*196 _165_
*197 _166_
*198 _167_
*199 _168_
*200 _169_
*201 _170_
*202 _171_
*203 _172_
*204 _173_
*205 _174_
*206 _175_
*207 _176_
*208 _177_
*209 _178_
*210 _179_
*211 _180_
*212 _181_
*213 _182_
*214 _183_
*215 _184_
*216 _185_
*217 _186_
*218 _187_
*219 _188_
*220 _189_
*221 _190_
*222 _191_
*223 _192_
*224 _193_
*225 _194_
*226 _195_
*227 _196_
*228 _197_
*229 _198_
*230 _199_
*231 _200_
*232 _201_
*233 _202_
*234 _203_
*235 _204_
*236 _205_
*237 _206_
*238 _207_
*239 _208_
*240 _209_
*241 _210_
*242 _211_
*243 _212_
*244 _213_
*245 _214_
*246 _215_
*247 _216_
*248 _217_
*249 _218_
*250 _219_
*251 _220_
*252 _221_
*253 _222_
*254 _223_
*255 _224_
*256 _225_
*257 _226_
*258 _227_
*259 _228_
*260 _229_
*261 _230_
*262 _231_
*263 _232_
*264 _233_
*265 _234_
*266 _235_
*267 _236_
*268 _237_
*269 _238_
*270 _239_
*271 _240_
*272 _241_
*273 _242_
*274 _243_
*275 _244_
*276 _245_
*277 _246_
*278 _247_
*279 _248_
*280 _249_
*281 _250_
*282 _251_
*283 _252_
*284 _253_
*285 _254_
*286 _255_
*287 _256_
*288 _257_
*289 _258_
*290 _259_
*291 _260_
*292 _261_
*293 _262_
*294 _263_
*295 _264_
*296 _265_
*297 _266_
*298 _267_
*299 _268_
*300 _269_
*301 _270_
*302 _271_
*303 _272_
*304 _273_
*305 _274_
*306 _275_
*307 _276_
*308 _277_
*309 _278_
*310 _279_
*311 _280_
*312 _281_
*313 _282_
*314 _283_
*315 _284_
*316 _285_
*317 _286_
*318 _287_
*319 _288_
*320 _289_
*321 _290_
*322 _291_
*323 _292_
*324 _293_
*325 clknet_0_prog_clk
*326 clknet_1_0__leaf_prog_clk
*327 clknet_1_1__leaf_prog_clk
*328 clknet_leaf_0_prog_clk
*329 clknet_leaf_10_prog_clk
*330 clknet_leaf_11_prog_clk
*331 clknet_leaf_12_prog_clk
*332 clknet_leaf_13_prog_clk
*333 clknet_leaf_14_prog_clk
*334 clknet_leaf_15_prog_clk
*335 clknet_leaf_16_prog_clk
*336 clknet_leaf_17_prog_clk
*337 clknet_leaf_18_prog_clk
*338 clknet_leaf_19_prog_clk
*339 clknet_leaf_1_prog_clk
*340 clknet_leaf_20_prog_clk
*341 clknet_leaf_21_prog_clk
*342 clknet_leaf_22_prog_clk
*343 clknet_leaf_2_prog_clk
*344 clknet_leaf_3_prog_clk
*345 clknet_leaf_4_prog_clk
*346 clknet_leaf_5_prog_clk
*347 clknet_leaf_6_prog_clk
*348 clknet_leaf_7_prog_clk
*349 clknet_leaf_8_prog_clk
*350 clknet_leaf_9_prog_clk
*351 logical_tile_clb_mode_clb__0\.logical_tile_clb_mode_default__fle_0\.ccff_tail
*352 logical_tile_clb_mode_clb__0\.logical_tile_clb_mode_default__fle_0\.logical_tile_clb_mode_default__fle_mode_physical__fabric_0\.logical_tile_clb_mode_default__fle_mode_physical__fabric_mode_default__frac_logic_0\.ccff_tail
*353 logical_tile_clb_mode_clb__0\.logical_tile_clb_mode_default__fle_0\.logical_tile_clb_mode_default__fle_mode_physical__fabric_0\.logical_tile_clb_mode_default__fle_mode_physical__fabric_mode_default__frac_logic_0\.logical_tile_clb_mode_default__fle_mode_physical__fabric_mode_default__frac_logic_mode_default__frac_lut4_0\.ccff_tail
*354 logical_tile_clb_mode_clb__0\.logical_tile_clb_mode_default__fle_0\.logical_tile_clb_mode_default__fle_mode_physical__fabric_0\.logical_tile_clb_mode_default__fle_mode_physical__fabric_mode_default__frac_logic_0\.logical_tile_clb_mode_default__fle_mode_physical__fabric_mode_default__frac_logic_mode_default__frac_lut4_0\.frac_lut4_0_\.frac_lut4_mux_0_\.INVTX1_0_\.in
*355 logical_tile_clb_mode_clb__0\.logical_tile_clb_mode_default__fle_0\.logical_tile_clb_mode_default__fle_mode_physical__fabric_0\.logical_tile_clb_mode_default__fle_mode_physical__fabric_mode_default__frac_logic_0\.logical_tile_clb_mode_default__fle_mode_physical__fabric_mode_default__frac_logic_mode_default__frac_lut4_0\.frac_lut4_0_\.frac_lut4_mux_0_\.INVTX1_10_\.in
*356 logical_tile_clb_mode_clb__0\.logical_tile_clb_mode_default__fle_0\.logical_tile_clb_mode_default__fle_mode_physical__fabric_0\.logical_tile_clb_mode_default__fle_mode_physical__fabric_mode_default__frac_logic_0\.logical_tile_clb_mode_default__fle_mode_physical__fabric_mode_default__frac_logic_mode_default__frac_lut4_0\.frac_lut4_0_\.frac_lut4_mux_0_\.INVTX1_11_\.in
*357 logical_tile_clb_mode_clb__0\.logical_tile_clb_mode_default__fle_0\.logical_tile_clb_mode_default__fle_mode_physical__fabric_0\.logical_tile_clb_mode_default__fle_mode_physical__fabric_mode_default__frac_logic_0\.logical_tile_clb_mode_default__fle_mode_physical__fabric_mode_default__frac_logic_mode_default__frac_lut4_0\.frac_lut4_0_\.frac_lut4_mux_0_\.INVTX1_12_\.in
*358 logical_tile_clb_mode_clb__0\.logical_tile_clb_mode_default__fle_0\.logical_tile_clb_mode_default__fle_mode_physical__fabric_0\.logical_tile_clb_mode_default__fle_mode_physical__fabric_mode_default__frac_logic_0\.logical_tile_clb_mode_default__fle_mode_physical__fabric_mode_default__frac_logic_mode_default__frac_lut4_0\.frac_lut4_0_\.frac_lut4_mux_0_\.INVTX1_13_\.in
*359 logical_tile_clb_mode_clb__0\.logical_tile_clb_mode_default__fle_0\.logical_tile_clb_mode_default__fle_mode_physical__fabric_0\.logical_tile_clb_mode_default__fle_mode_physical__fabric_mode_default__frac_logic_0\.logical_tile_clb_mode_default__fle_mode_physical__fabric_mode_default__frac_logic_mode_default__frac_lut4_0\.frac_lut4_0_\.frac_lut4_mux_0_\.INVTX1_14_\.in
*360 logical_tile_clb_mode_clb__0\.logical_tile_clb_mode_default__fle_0\.logical_tile_clb_mode_default__fle_mode_physical__fabric_0\.logical_tile_clb_mode_default__fle_mode_physical__fabric_mode_default__frac_logic_0\.logical_tile_clb_mode_default__fle_mode_physical__fabric_mode_default__frac_logic_mode_default__frac_lut4_0\.frac_lut4_0_\.frac_lut4_mux_0_\.INVTX1_15_\.in
*361 logical_tile_clb_mode_clb__0\.logical_tile_clb_mode_default__fle_0\.logical_tile_clb_mode_default__fle_mode_physical__fabric_0\.logical_tile_clb_mode_default__fle_mode_physical__fabric_mode_default__frac_logic_0\.logical_tile_clb_mode_default__fle_mode_physical__fabric_mode_default__frac_logic_mode_default__frac_lut4_0\.frac_lut4_0_\.frac_lut4_mux_0_\.INVTX1_1_\.in
*362 logical_tile_clb_mode_clb__0\.logical_tile_clb_mode_default__fle_0\.logical_tile_clb_mode_default__fle_mode_physical__fabric_0\.logical_tile_clb_mode_default__fle_mode_physical__fabric_mode_default__frac_logic_0\.logical_tile_clb_mode_default__fle_mode_physical__fabric_mode_default__frac_logic_mode_default__frac_lut4_0\.frac_lut4_0_\.frac_lut4_mux_0_\.INVTX1_2_\.in
*363 logical_tile_clb_mode_clb__0\.logical_tile_clb_mode_default__fle_0\.logical_tile_clb_mode_default__fle_mode_physical__fabric_0\.logical_tile_clb_mode_default__fle_mode_physical__fabric_mode_default__frac_logic_0\.logical_tile_clb_mode_default__fle_mode_physical__fabric_mode_default__frac_logic_mode_default__frac_lut4_0\.frac_lut4_0_\.frac_lut4_mux_0_\.INVTX1_3_\.in
*364 logical_tile_clb_mode_clb__0\.logical_tile_clb_mode_default__fle_0\.logical_tile_clb_mode_default__fle_mode_physical__fabric_0\.logical_tile_clb_mode_default__fle_mode_physical__fabric_mode_default__frac_logic_0\.logical_tile_clb_mode_default__fle_mode_physical__fabric_mode_default__frac_logic_mode_default__frac_lut4_0\.frac_lut4_0_\.frac_lut4_mux_0_\.INVTX1_4_\.in
*365 logical_tile_clb_mode_clb__0\.logical_tile_clb_mode_default__fle_0\.logical_tile_clb_mode_default__fle_mode_physical__fabric_0\.logical_tile_clb_mode_default__fle_mode_physical__fabric_mode_default__frac_logic_0\.logical_tile_clb_mode_default__fle_mode_physical__fabric_mode_default__frac_logic_mode_default__frac_lut4_0\.frac_lut4_0_\.frac_lut4_mux_0_\.INVTX1_5_\.in
*366 logical_tile_clb_mode_clb__0\.logical_tile_clb_mode_default__fle_0\.logical_tile_clb_mode_default__fle_mode_physical__fabric_0\.logical_tile_clb_mode_default__fle_mode_physical__fabric_mode_default__frac_logic_0\.logical_tile_clb_mode_default__fle_mode_physical__fabric_mode_default__frac_logic_mode_default__frac_lut4_0\.frac_lut4_0_\.frac_lut4_mux_0_\.INVTX1_6_\.in
*367 logical_tile_clb_mode_clb__0\.logical_tile_clb_mode_default__fle_0\.logical_tile_clb_mode_default__fle_mode_physical__fabric_0\.logical_tile_clb_mode_default__fle_mode_physical__fabric_mode_default__frac_logic_0\.logical_tile_clb_mode_default__fle_mode_physical__fabric_mode_default__frac_logic_mode_default__frac_lut4_0\.frac_lut4_0_\.frac_lut4_mux_0_\.INVTX1_7_\.in
*368 logical_tile_clb_mode_clb__0\.logical_tile_clb_mode_default__fle_0\.logical_tile_clb_mode_default__fle_mode_physical__fabric_0\.logical_tile_clb_mode_default__fle_mode_physical__fabric_mode_default__frac_logic_0\.logical_tile_clb_mode_default__fle_mode_physical__fabric_mode_default__frac_logic_mode_default__frac_lut4_0\.frac_lut4_0_\.frac_lut4_mux_0_\.INVTX1_8_\.in
*369 logical_tile_clb_mode_clb__0\.logical_tile_clb_mode_default__fle_0\.logical_tile_clb_mode_default__fle_mode_physical__fabric_0\.logical_tile_clb_mode_default__fle_mode_physical__fabric_mode_default__frac_logic_0\.logical_tile_clb_mode_default__fle_mode_physical__fabric_mode_default__frac_logic_mode_default__frac_lut4_0\.frac_lut4_0_\.frac_lut4_mux_0_\.INVTX1_9_\.in
*370 logical_tile_clb_mode_clb__0\.logical_tile_clb_mode_default__fle_0\.logical_tile_clb_mode_default__fle_mode_physical__fabric_0\.logical_tile_clb_mode_default__fle_mode_physical__fabric_mode_default__frac_logic_0\.mem_frac_logic_out_0\.DFFR_0_\.Q
*371 logical_tile_clb_mode_clb__0\.logical_tile_clb_mode_default__fle_0\.logical_tile_clb_mode_default__fle_mode_physical__fabric_0\.logical_tile_clb_mode_default__fle_mode_physical__fabric_mode_default__frac_logic_0\.mem_frac_logic_out_0\.DFFR_1_\.Q
*372 logical_tile_clb_mode_clb__0\.logical_tile_clb_mode_default__fle_0\.logical_tile_clb_mode_default__fle_mode_physical__fabric_0\.mem_fabric_out_0\.DFFR_0_\.Q
*373 logical_tile_clb_mode_clb__0\.logical_tile_clb_mode_default__fle_0\.logical_tile_clb_mode_default__fle_mode_physical__fabric_0\.mem_fabric_out_0\.DFFR_1_\.Q
*374 logical_tile_clb_mode_clb__0\.logical_tile_clb_mode_default__fle_0\.logical_tile_clb_mode_default__fle_mode_physical__fabric_0\.mem_fabric_out_0\.DFFR_2_\.Q
*375 logical_tile_clb_mode_clb__0\.logical_tile_clb_mode_default__fle_0\.logical_tile_clb_mode_default__fle_mode_physical__fabric_0\.mem_fabric_out_1\.DFFR_0_\.Q
*376 logical_tile_clb_mode_clb__0\.logical_tile_clb_mode_default__fle_0\.logical_tile_clb_mode_default__fle_mode_physical__fabric_0\.mem_fabric_out_1\.DFFR_1_\.Q
*377 logical_tile_clb_mode_clb__0\.logical_tile_clb_mode_default__fle_1\.ccff_tail
*378 logical_tile_clb_mode_clb__0\.logical_tile_clb_mode_default__fle_1\.logical_tile_clb_mode_default__fle_mode_physical__fabric_0\.logical_tile_clb_mode_default__fle_mode_physical__fabric_mode_default__frac_logic_0\.ccff_tail
*379 logical_tile_clb_mode_clb__0\.logical_tile_clb_mode_default__fle_1\.logical_tile_clb_mode_default__fle_mode_physical__fabric_0\.logical_tile_clb_mode_default__fle_mode_physical__fabric_mode_default__frac_logic_0\.logical_tile_clb_mode_default__fle_mode_physical__fabric_mode_default__frac_logic_mode_default__frac_lut4_0\.ccff_tail
*380 logical_tile_clb_mode_clb__0\.logical_tile_clb_mode_default__fle_1\.logical_tile_clb_mode_default__fle_mode_physical__fabric_0\.logical_tile_clb_mode_default__fle_mode_physical__fabric_mode_default__frac_logic_0\.logical_tile_clb_mode_default__fle_mode_physical__fabric_mode_default__frac_logic_mode_default__frac_lut4_0\.frac_lut4_0_\.frac_lut4_mux_0_\.INVTX1_0_\.in
*381 logical_tile_clb_mode_clb__0\.logical_tile_clb_mode_default__fle_1\.logical_tile_clb_mode_default__fle_mode_physical__fabric_0\.logical_tile_clb_mode_default__fle_mode_physical__fabric_mode_default__frac_logic_0\.logical_tile_clb_mode_default__fle_mode_physical__fabric_mode_default__frac_logic_mode_default__frac_lut4_0\.frac_lut4_0_\.frac_lut4_mux_0_\.INVTX1_10_\.in
*382 logical_tile_clb_mode_clb__0\.logical_tile_clb_mode_default__fle_1\.logical_tile_clb_mode_default__fle_mode_physical__fabric_0\.logical_tile_clb_mode_default__fle_mode_physical__fabric_mode_default__frac_logic_0\.logical_tile_clb_mode_default__fle_mode_physical__fabric_mode_default__frac_logic_mode_default__frac_lut4_0\.frac_lut4_0_\.frac_lut4_mux_0_\.INVTX1_11_\.in
*383 logical_tile_clb_mode_clb__0\.logical_tile_clb_mode_default__fle_1\.logical_tile_clb_mode_default__fle_mode_physical__fabric_0\.logical_tile_clb_mode_default__fle_mode_physical__fabric_mode_default__frac_logic_0\.logical_tile_clb_mode_default__fle_mode_physical__fabric_mode_default__frac_logic_mode_default__frac_lut4_0\.frac_lut4_0_\.frac_lut4_mux_0_\.INVTX1_12_\.in
*384 logical_tile_clb_mode_clb__0\.logical_tile_clb_mode_default__fle_1\.logical_tile_clb_mode_default__fle_mode_physical__fabric_0\.logical_tile_clb_mode_default__fle_mode_physical__fabric_mode_default__frac_logic_0\.logical_tile_clb_mode_default__fle_mode_physical__fabric_mode_default__frac_logic_mode_default__frac_lut4_0\.frac_lut4_0_\.frac_lut4_mux_0_\.INVTX1_13_\.in
*385 logical_tile_clb_mode_clb__0\.logical_tile_clb_mode_default__fle_1\.logical_tile_clb_mode_default__fle_mode_physical__fabric_0\.logical_tile_clb_mode_default__fle_mode_physical__fabric_mode_default__frac_logic_0\.logical_tile_clb_mode_default__fle_mode_physical__fabric_mode_default__frac_logic_mode_default__frac_lut4_0\.frac_lut4_0_\.frac_lut4_mux_0_\.INVTX1_14_\.in
*386 logical_tile_clb_mode_clb__0\.logical_tile_clb_mode_default__fle_1\.logical_tile_clb_mode_default__fle_mode_physical__fabric_0\.logical_tile_clb_mode_default__fle_mode_physical__fabric_mode_default__frac_logic_0\.logical_tile_clb_mode_default__fle_mode_physical__fabric_mode_default__frac_logic_mode_default__frac_lut4_0\.frac_lut4_0_\.frac_lut4_mux_0_\.INVTX1_15_\.in
*387 logical_tile_clb_mode_clb__0\.logical_tile_clb_mode_default__fle_1\.logical_tile_clb_mode_default__fle_mode_physical__fabric_0\.logical_tile_clb_mode_default__fle_mode_physical__fabric_mode_default__frac_logic_0\.logical_tile_clb_mode_default__fle_mode_physical__fabric_mode_default__frac_logic_mode_default__frac_lut4_0\.frac_lut4_0_\.frac_lut4_mux_0_\.INVTX1_1_\.in
*388 logical_tile_clb_mode_clb__0\.logical_tile_clb_mode_default__fle_1\.logical_tile_clb_mode_default__fle_mode_physical__fabric_0\.logical_tile_clb_mode_default__fle_mode_physical__fabric_mode_default__frac_logic_0\.logical_tile_clb_mode_default__fle_mode_physical__fabric_mode_default__frac_logic_mode_default__frac_lut4_0\.frac_lut4_0_\.frac_lut4_mux_0_\.INVTX1_2_\.in
*389 logical_tile_clb_mode_clb__0\.logical_tile_clb_mode_default__fle_1\.logical_tile_clb_mode_default__fle_mode_physical__fabric_0\.logical_tile_clb_mode_default__fle_mode_physical__fabric_mode_default__frac_logic_0\.logical_tile_clb_mode_default__fle_mode_physical__fabric_mode_default__frac_logic_mode_default__frac_lut4_0\.frac_lut4_0_\.frac_lut4_mux_0_\.INVTX1_3_\.in
*390 logical_tile_clb_mode_clb__0\.logical_tile_clb_mode_default__fle_1\.logical_tile_clb_mode_default__fle_mode_physical__fabric_0\.logical_tile_clb_mode_default__fle_mode_physical__fabric_mode_default__frac_logic_0\.logical_tile_clb_mode_default__fle_mode_physical__fabric_mode_default__frac_logic_mode_default__frac_lut4_0\.frac_lut4_0_\.frac_lut4_mux_0_\.INVTX1_4_\.in
*391 logical_tile_clb_mode_clb__0\.logical_tile_clb_mode_default__fle_1\.logical_tile_clb_mode_default__fle_mode_physical__fabric_0\.logical_tile_clb_mode_default__fle_mode_physical__fabric_mode_default__frac_logic_0\.logical_tile_clb_mode_default__fle_mode_physical__fabric_mode_default__frac_logic_mode_default__frac_lut4_0\.frac_lut4_0_\.frac_lut4_mux_0_\.INVTX1_5_\.in
*392 logical_tile_clb_mode_clb__0\.logical_tile_clb_mode_default__fle_1\.logical_tile_clb_mode_default__fle_mode_physical__fabric_0\.logical_tile_clb_mode_default__fle_mode_physical__fabric_mode_default__frac_logic_0\.logical_tile_clb_mode_default__fle_mode_physical__fabric_mode_default__frac_logic_mode_default__frac_lut4_0\.frac_lut4_0_\.frac_lut4_mux_0_\.INVTX1_6_\.in
*393 logical_tile_clb_mode_clb__0\.logical_tile_clb_mode_default__fle_1\.logical_tile_clb_mode_default__fle_mode_physical__fabric_0\.logical_tile_clb_mode_default__fle_mode_physical__fabric_mode_default__frac_logic_0\.logical_tile_clb_mode_default__fle_mode_physical__fabric_mode_default__frac_logic_mode_default__frac_lut4_0\.frac_lut4_0_\.frac_lut4_mux_0_\.INVTX1_7_\.in
*394 logical_tile_clb_mode_clb__0\.logical_tile_clb_mode_default__fle_1\.logical_tile_clb_mode_default__fle_mode_physical__fabric_0\.logical_tile_clb_mode_default__fle_mode_physical__fabric_mode_default__frac_logic_0\.logical_tile_clb_mode_default__fle_mode_physical__fabric_mode_default__frac_logic_mode_default__frac_lut4_0\.frac_lut4_0_\.frac_lut4_mux_0_\.INVTX1_8_\.in
*395 logical_tile_clb_mode_clb__0\.logical_tile_clb_mode_default__fle_1\.logical_tile_clb_mode_default__fle_mode_physical__fabric_0\.logical_tile_clb_mode_default__fle_mode_physical__fabric_mode_default__frac_logic_0\.logical_tile_clb_mode_default__fle_mode_physical__fabric_mode_default__frac_logic_mode_default__frac_lut4_0\.frac_lut4_0_\.frac_lut4_mux_0_\.INVTX1_9_\.in
*396 logical_tile_clb_mode_clb__0\.logical_tile_clb_mode_default__fle_1\.logical_tile_clb_mode_default__fle_mode_physical__fabric_0\.logical_tile_clb_mode_default__fle_mode_physical__fabric_mode_default__frac_logic_0\.mem_frac_logic_out_0\.DFFR_0_\.Q
*397 logical_tile_clb_mode_clb__0\.logical_tile_clb_mode_default__fle_1\.logical_tile_clb_mode_default__fle_mode_physical__fabric_0\.logical_tile_clb_mode_default__fle_mode_physical__fabric_mode_default__frac_logic_0\.mem_frac_logic_out_0\.DFFR_1_\.Q
*398 logical_tile_clb_mode_clb__0\.logical_tile_clb_mode_default__fle_1\.logical_tile_clb_mode_default__fle_mode_physical__fabric_0\.mem_fabric_out_0\.DFFR_0_\.Q
*399 logical_tile_clb_mode_clb__0\.logical_tile_clb_mode_default__fle_1\.logical_tile_clb_mode_default__fle_mode_physical__fabric_0\.mem_fabric_out_0\.DFFR_1_\.Q
*400 logical_tile_clb_mode_clb__0\.logical_tile_clb_mode_default__fle_1\.logical_tile_clb_mode_default__fle_mode_physical__fabric_0\.mem_fabric_out_0\.DFFR_2_\.Q
*401 logical_tile_clb_mode_clb__0\.logical_tile_clb_mode_default__fle_1\.logical_tile_clb_mode_default__fle_mode_physical__fabric_0\.mem_fabric_out_1\.DFFR_0_\.Q
*402 logical_tile_clb_mode_clb__0\.logical_tile_clb_mode_default__fle_1\.logical_tile_clb_mode_default__fle_mode_physical__fabric_0\.mem_fabric_out_1\.DFFR_1_\.Q
*403 logical_tile_clb_mode_clb__0\.logical_tile_clb_mode_default__fle_2\.ccff_tail
*404 logical_tile_clb_mode_clb__0\.logical_tile_clb_mode_default__fle_2\.logical_tile_clb_mode_default__fle_mode_physical__fabric_0\.logical_tile_clb_mode_default__fle_mode_physical__fabric_mode_default__frac_logic_0\.ccff_tail
*405 logical_tile_clb_mode_clb__0\.logical_tile_clb_mode_default__fle_2\.logical_tile_clb_mode_default__fle_mode_physical__fabric_0\.logical_tile_clb_mode_default__fle_mode_physical__fabric_mode_default__frac_logic_0\.logical_tile_clb_mode_default__fle_mode_physical__fabric_mode_default__frac_logic_mode_default__frac_lut4_0\.ccff_tail
*406 logical_tile_clb_mode_clb__0\.logical_tile_clb_mode_default__fle_2\.logical_tile_clb_mode_default__fle_mode_physical__fabric_0\.logical_tile_clb_mode_default__fle_mode_physical__fabric_mode_default__frac_logic_0\.logical_tile_clb_mode_default__fle_mode_physical__fabric_mode_default__frac_logic_mode_default__frac_lut4_0\.frac_lut4_0_\.frac_lut4_mux_0_\.INVTX1_0_\.in
*407 logical_tile_clb_mode_clb__0\.logical_tile_clb_mode_default__fle_2\.logical_tile_clb_mode_default__fle_mode_physical__fabric_0\.logical_tile_clb_mode_default__fle_mode_physical__fabric_mode_default__frac_logic_0\.logical_tile_clb_mode_default__fle_mode_physical__fabric_mode_default__frac_logic_mode_default__frac_lut4_0\.frac_lut4_0_\.frac_lut4_mux_0_\.INVTX1_10_\.in
*408 logical_tile_clb_mode_clb__0\.logical_tile_clb_mode_default__fle_2\.logical_tile_clb_mode_default__fle_mode_physical__fabric_0\.logical_tile_clb_mode_default__fle_mode_physical__fabric_mode_default__frac_logic_0\.logical_tile_clb_mode_default__fle_mode_physical__fabric_mode_default__frac_logic_mode_default__frac_lut4_0\.frac_lut4_0_\.frac_lut4_mux_0_\.INVTX1_11_\.in
*409 logical_tile_clb_mode_clb__0\.logical_tile_clb_mode_default__fle_2\.logical_tile_clb_mode_default__fle_mode_physical__fabric_0\.logical_tile_clb_mode_default__fle_mode_physical__fabric_mode_default__frac_logic_0\.logical_tile_clb_mode_default__fle_mode_physical__fabric_mode_default__frac_logic_mode_default__frac_lut4_0\.frac_lut4_0_\.frac_lut4_mux_0_\.INVTX1_12_\.in
*410 logical_tile_clb_mode_clb__0\.logical_tile_clb_mode_default__fle_2\.logical_tile_clb_mode_default__fle_mode_physical__fabric_0\.logical_tile_clb_mode_default__fle_mode_physical__fabric_mode_default__frac_logic_0\.logical_tile_clb_mode_default__fle_mode_physical__fabric_mode_default__frac_logic_mode_default__frac_lut4_0\.frac_lut4_0_\.frac_lut4_mux_0_\.INVTX1_13_\.in
*411 logical_tile_clb_mode_clb__0\.logical_tile_clb_mode_default__fle_2\.logical_tile_clb_mode_default__fle_mode_physical__fabric_0\.logical_tile_clb_mode_default__fle_mode_physical__fabric_mode_default__frac_logic_0\.logical_tile_clb_mode_default__fle_mode_physical__fabric_mode_default__frac_logic_mode_default__frac_lut4_0\.frac_lut4_0_\.frac_lut4_mux_0_\.INVTX1_14_\.in
*412 logical_tile_clb_mode_clb__0\.logical_tile_clb_mode_default__fle_2\.logical_tile_clb_mode_default__fle_mode_physical__fabric_0\.logical_tile_clb_mode_default__fle_mode_physical__fabric_mode_default__frac_logic_0\.logical_tile_clb_mode_default__fle_mode_physical__fabric_mode_default__frac_logic_mode_default__frac_lut4_0\.frac_lut4_0_\.frac_lut4_mux_0_\.INVTX1_15_\.in
*413 logical_tile_clb_mode_clb__0\.logical_tile_clb_mode_default__fle_2\.logical_tile_clb_mode_default__fle_mode_physical__fabric_0\.logical_tile_clb_mode_default__fle_mode_physical__fabric_mode_default__frac_logic_0\.logical_tile_clb_mode_default__fle_mode_physical__fabric_mode_default__frac_logic_mode_default__frac_lut4_0\.frac_lut4_0_\.frac_lut4_mux_0_\.INVTX1_1_\.in
*414 logical_tile_clb_mode_clb__0\.logical_tile_clb_mode_default__fle_2\.logical_tile_clb_mode_default__fle_mode_physical__fabric_0\.logical_tile_clb_mode_default__fle_mode_physical__fabric_mode_default__frac_logic_0\.logical_tile_clb_mode_default__fle_mode_physical__fabric_mode_default__frac_logic_mode_default__frac_lut4_0\.frac_lut4_0_\.frac_lut4_mux_0_\.INVTX1_2_\.in
*415 logical_tile_clb_mode_clb__0\.logical_tile_clb_mode_default__fle_2\.logical_tile_clb_mode_default__fle_mode_physical__fabric_0\.logical_tile_clb_mode_default__fle_mode_physical__fabric_mode_default__frac_logic_0\.logical_tile_clb_mode_default__fle_mode_physical__fabric_mode_default__frac_logic_mode_default__frac_lut4_0\.frac_lut4_0_\.frac_lut4_mux_0_\.INVTX1_3_\.in
*416 logical_tile_clb_mode_clb__0\.logical_tile_clb_mode_default__fle_2\.logical_tile_clb_mode_default__fle_mode_physical__fabric_0\.logical_tile_clb_mode_default__fle_mode_physical__fabric_mode_default__frac_logic_0\.logical_tile_clb_mode_default__fle_mode_physical__fabric_mode_default__frac_logic_mode_default__frac_lut4_0\.frac_lut4_0_\.frac_lut4_mux_0_\.INVTX1_4_\.in
*417 logical_tile_clb_mode_clb__0\.logical_tile_clb_mode_default__fle_2\.logical_tile_clb_mode_default__fle_mode_physical__fabric_0\.logical_tile_clb_mode_default__fle_mode_physical__fabric_mode_default__frac_logic_0\.logical_tile_clb_mode_default__fle_mode_physical__fabric_mode_default__frac_logic_mode_default__frac_lut4_0\.frac_lut4_0_\.frac_lut4_mux_0_\.INVTX1_5_\.in
*418 logical_tile_clb_mode_clb__0\.logical_tile_clb_mode_default__fle_2\.logical_tile_clb_mode_default__fle_mode_physical__fabric_0\.logical_tile_clb_mode_default__fle_mode_physical__fabric_mode_default__frac_logic_0\.logical_tile_clb_mode_default__fle_mode_physical__fabric_mode_default__frac_logic_mode_default__frac_lut4_0\.frac_lut4_0_\.frac_lut4_mux_0_\.INVTX1_6_\.in
*419 logical_tile_clb_mode_clb__0\.logical_tile_clb_mode_default__fle_2\.logical_tile_clb_mode_default__fle_mode_physical__fabric_0\.logical_tile_clb_mode_default__fle_mode_physical__fabric_mode_default__frac_logic_0\.logical_tile_clb_mode_default__fle_mode_physical__fabric_mode_default__frac_logic_mode_default__frac_lut4_0\.frac_lut4_0_\.frac_lut4_mux_0_\.INVTX1_7_\.in
*420 logical_tile_clb_mode_clb__0\.logical_tile_clb_mode_default__fle_2\.logical_tile_clb_mode_default__fle_mode_physical__fabric_0\.logical_tile_clb_mode_default__fle_mode_physical__fabric_mode_default__frac_logic_0\.logical_tile_clb_mode_default__fle_mode_physical__fabric_mode_default__frac_logic_mode_default__frac_lut4_0\.frac_lut4_0_\.frac_lut4_mux_0_\.INVTX1_8_\.in
*421 logical_tile_clb_mode_clb__0\.logical_tile_clb_mode_default__fle_2\.logical_tile_clb_mode_default__fle_mode_physical__fabric_0\.logical_tile_clb_mode_default__fle_mode_physical__fabric_mode_default__frac_logic_0\.logical_tile_clb_mode_default__fle_mode_physical__fabric_mode_default__frac_logic_mode_default__frac_lut4_0\.frac_lut4_0_\.frac_lut4_mux_0_\.INVTX1_9_\.in
*422 logical_tile_clb_mode_clb__0\.logical_tile_clb_mode_default__fle_2\.logical_tile_clb_mode_default__fle_mode_physical__fabric_0\.logical_tile_clb_mode_default__fle_mode_physical__fabric_mode_default__frac_logic_0\.mem_frac_logic_out_0\.DFFR_0_\.Q
*423 logical_tile_clb_mode_clb__0\.logical_tile_clb_mode_default__fle_2\.logical_tile_clb_mode_default__fle_mode_physical__fabric_0\.logical_tile_clb_mode_default__fle_mode_physical__fabric_mode_default__frac_logic_0\.mem_frac_logic_out_0\.DFFR_1_\.Q
*424 logical_tile_clb_mode_clb__0\.logical_tile_clb_mode_default__fle_2\.logical_tile_clb_mode_default__fle_mode_physical__fabric_0\.mem_fabric_out_0\.DFFR_0_\.Q
*425 logical_tile_clb_mode_clb__0\.logical_tile_clb_mode_default__fle_2\.logical_tile_clb_mode_default__fle_mode_physical__fabric_0\.mem_fabric_out_0\.DFFR_1_\.Q
*426 logical_tile_clb_mode_clb__0\.logical_tile_clb_mode_default__fle_2\.logical_tile_clb_mode_default__fle_mode_physical__fabric_0\.mem_fabric_out_0\.DFFR_2_\.Q
*427 logical_tile_clb_mode_clb__0\.logical_tile_clb_mode_default__fle_2\.logical_tile_clb_mode_default__fle_mode_physical__fabric_0\.mem_fabric_out_1\.DFFR_0_\.Q
*428 logical_tile_clb_mode_clb__0\.logical_tile_clb_mode_default__fle_2\.logical_tile_clb_mode_default__fle_mode_physical__fabric_0\.mem_fabric_out_1\.DFFR_1_\.Q
*429 logical_tile_clb_mode_clb__0\.logical_tile_clb_mode_default__fle_3\.ccff_tail
*430 logical_tile_clb_mode_clb__0\.logical_tile_clb_mode_default__fle_3\.logical_tile_clb_mode_default__fle_mode_physical__fabric_0\.logical_tile_clb_mode_default__fle_mode_physical__fabric_mode_default__frac_logic_0\.ccff_tail
*431 logical_tile_clb_mode_clb__0\.logical_tile_clb_mode_default__fle_3\.logical_tile_clb_mode_default__fle_mode_physical__fabric_0\.logical_tile_clb_mode_default__fle_mode_physical__fabric_mode_default__frac_logic_0\.logical_tile_clb_mode_default__fle_mode_physical__fabric_mode_default__frac_logic_mode_default__frac_lut4_0\.ccff_tail
*432 logical_tile_clb_mode_clb__0\.logical_tile_clb_mode_default__fle_3\.logical_tile_clb_mode_default__fle_mode_physical__fabric_0\.logical_tile_clb_mode_default__fle_mode_physical__fabric_mode_default__frac_logic_0\.logical_tile_clb_mode_default__fle_mode_physical__fabric_mode_default__frac_logic_mode_default__frac_lut4_0\.frac_lut4_0_\.frac_lut4_mux_0_\.INVTX1_0_\.in