*SPEF "ieee 1481-1999"
*DESIGN "sb_0__2_"
*DATE "11:11:11 Fri 11 11, 1111"
*VENDOR "OpenRCX"
*PROGRAM "Parallel Extraction"
*VERSION "1.0"
*DESIGN_FLOW "NAME_SCOPE LOCAL" "PIN_CAP NONE"
*DIVIDER /
*DELIMITER :
*BUS_DELIMITER []
*T_UNIT 1 NS
*C_UNIT 1 PF
*R_UNIT 1 OHM
*L_UNIT 1 HENRY

*NAME_MAP
*1 bottom_left_grid_right_width_0_height_0_subtile_0__pin_inpad_0_
*2 bottom_left_grid_right_width_0_height_0_subtile_1__pin_inpad_0_
*3 bottom_left_grid_right_width_0_height_0_subtile_2__pin_inpad_0_
*4 bottom_left_grid_right_width_0_height_0_subtile_3__pin_inpad_0_
*5 bottom_right_grid_left_width_0_height_0_subtile_0__pin_O_3_
*6 bottom_right_grid_left_width_0_height_0_subtile_0__pin_O_7_
*7 ccff_head
*8 ccff_tail
*9 chanx_right_in[0]
*10 chanx_right_in[10]
*11 chanx_right_in[11]
*12 chanx_right_in[12]
*13 chanx_right_in[13]
*14 chanx_right_in[14]
*15 chanx_right_in[15]
*16 chanx_right_in[16]
*17 chanx_right_in[17]
*18 chanx_right_in[18]
*19 chanx_right_in[19]
*20 chanx_right_in[1]
*21 chanx_right_in[2]
*22 chanx_right_in[3]
*23 chanx_right_in[4]
*24 chanx_right_in[5]
*25 chanx_right_in[6]
*26 chanx_right_in[7]
*27 chanx_right_in[8]
*28 chanx_right_in[9]
*29 net59
*30 net53
*31 net52
*32 net51
*33 net50
*34 net49
*35 net48
*36 chanx_right_out[16]
*37 chanx_right_out[17]
*38 chanx_right_out[18]
*39 chanx_right_out[19]
*40 net58
*41 net57
*42 net56
*43 net55
*44 net54
*45 chanx_right_out[6]
*46 chanx_right_out[7]
*47 chanx_right_out[8]
*48 chanx_right_out[9]
*49 chany_bottom_in[0]
*50 chany_bottom_in[10]
*51 chany_bottom_in[11]
*52 chany_bottom_in[12]
*53 chany_bottom_in[13]
*54 chany_bottom_in[14]
*55 chany_bottom_in[15]
*56 chany_bottom_in[16]
*57 chany_bottom_in[17]
*58 chany_bottom_in[18]
*59 chany_bottom_in[19]
*60 chany_bottom_in[1]
*61 chany_bottom_in[2]
*62 chany_bottom_in[3]
*63 chany_bottom_in[4]
*64 chany_bottom_in[5]
*65 chany_bottom_in[6]
*66 chany_bottom_in[7]
*67 chany_bottom_in[8]
*68 chany_bottom_in[9]
*69 net47
*70 net41
*71 net40
*72 net39
*73 net38
*74 net37
*75 net36
*76 chany_bottom_out[16]
*77 chany_bottom_out[17]
*78 chany_bottom_out[18]
*79 chany_bottom_out[19]
*80 net46
*81 net45
*82 net44
*83 net43
*84 net42
*85 chany_bottom_out[6]
*86 chany_bottom_out[7]
*87 chany_bottom_out[8]
*88 chany_bottom_out[9]
*89 pReset
*90 prog_clk
*91 right_bottom_grid_top_width_0_height_0_subtile_0__pin_O_0_
*92 right_bottom_grid_top_width_0_height_0_subtile_0__pin_O_4_
*93 right_top_grid_bottom_width_0_height_0_subtile_0__pin_inpad_0_
*94 right_top_grid_bottom_width_0_height_0_subtile_1__pin_inpad_0_
*95 right_top_grid_bottom_width_0_height_0_subtile_2__pin_inpad_0_
*96 right_top_grid_bottom_width_0_height_0_subtile_3__pin_inpad_0_
*99 _000_
*100 _001_
*101 _002_
*102 _003_
*103 _004_
*104 _005_
*105 _006_
*106 _007_
*107 _008_
*108 _009_
*109 _010_
*110 _011_
*111 _012_
*112 _013_
*113 _014_
*114 _015_
*115 _016_
*116 _017_
*117 _018_
*118 _019_
*119 _020_
*120 _021_
*121 _022_
*122 _023_
*123 _024_
*124 _025_
*125 _026_
*126 _027_
*127 _028_
*128 _029_
*129 _030_
*130 _031_
*131 _032_
*132 _033_
*133 _034_
*134 _035_
*135 _036_
*136 _037_
*137 _038_
*138 _039_
*139 _040_
*140 _041_
*141 _042_
*142 _043_
*143 _044_
*144 _045_
*145 _046_
*146 _047_
*147 _048_
*148 _049_
*149 _050_
*150 _051_
*151 _052_
*152 clknet_0_prog_clk
*153 clknet_2_0__leaf_prog_clk
*154 clknet_2_1__leaf_prog_clk
*155 clknet_2_2__leaf_prog_clk
*156 clknet_2_3__leaf_prog_clk
*157 mem_bottom_track_1\.DFFR_0_\.D
*158 mem_bottom_track_1\.DFFR_0_\.Q
*159 mem_bottom_track_1\.DFFR_1_\.Q
*160 mem_bottom_track_11\.DFFR_0_\.D
*161 mem_bottom_track_11\.DFFR_0_\.Q
*162 mem_bottom_track_11\.DFFR_1_\.Q
*163 mem_bottom_track_21\.DFFR_0_\.Q
*164 mem_bottom_track_21\.DFFR_1_\.Q
*165 mem_bottom_track_23\.DFFR_0_\.Q
*166 mem_bottom_track_23\.DFFR_1_\.Q
*167 mem_bottom_track_25\.DFFR_0_\.Q
*168 mem_bottom_track_25\.DFFR_1_\.Q
*169 mem_bottom_track_27\.DFFR_0_\.Q
*170 mem_bottom_track_27\.DFFR_1_\.Q
*171 mem_bottom_track_29\.DFFR_0_\.Q
*172 mem_bottom_track_29\.DFFR_1_\.Q
*173 mem_bottom_track_3\.DFFR_0_\.Q
*174 mem_bottom_track_3\.DFFR_1_\.Q
*175 mem_bottom_track_31\.DFFR_0_\.Q
*176 mem_bottom_track_5\.DFFR_0_\.Q
*177 mem_bottom_track_5\.DFFR_1_\.Q
*178 mem_bottom_track_7\.DFFR_0_\.Q
*179 mem_bottom_track_7\.DFFR_1_\.Q
*180 mem_bottom_track_9\.DFFR_0_\.Q
*181 mem_right_track_0\.DFFR_0_\.Q
*182 mem_right_track_0\.DFFR_1_\.Q
*183 mem_right_track_10\.DFFR_0_\.D
*184 mem_right_track_10\.DFFR_0_\.Q
*185 mem_right_track_10\.DFFR_1_\.Q
*186 mem_right_track_2\.DFFR_0_\.Q
*187 mem_right_track_2\.DFFR_1_\.Q
*188 mem_right_track_20\.DFFR_0_\.Q
*189 mem_right_track_20\.DFFR_1_\.Q
*190 mem_right_track_22\.DFFR_0_\.Q
*191 mem_right_track_22\.DFFR_1_\.Q
*192 mem_right_track_24\.DFFR_0_\.Q
*193 mem_right_track_24\.DFFR_1_\.Q
*194 mem_right_track_26\.DFFR_0_\.Q
*195 mem_right_track_26\.DFFR_1_\.Q
*196 mem_right_track_28\.DFFR_0_\.Q
*197 mem_right_track_28\.DFFR_1_\.Q
*198 mem_right_track_30\.DFFR_0_\.Q
*199 mem_right_track_4\.DFFR_0_\.Q
*200 mem_right_track_4\.DFFR_1_\.Q
*201 mem_right_track_6\.DFFR_0_\.Q
*202 mem_right_track_6\.DFFR_1_\.Q
*203 mem_right_track_8\.DFFR_0_\.Q
*204 net1
*205 net10
*206 net100
*207 net101
*208 net102
*209 net103
*210 net104
*211 net105
*212 net106
*213 net11
*214 net12
*215 net13
*216 net14
*217 net15
*218 net16
*219 net17
*220 net18
*221 net19
*222 net2
*223 net20
*224 net21
*225 net22
*226 net23
*227 net24
*228 net25
*229 net26
*230 net27
*231 net28
*232 net29
*233 net3
*234 net30
*235 net31
*236 net32
*237 net33
*238 net34
*239 net35
*240 net4
*241 net5
*242 net6
*243 net60
*244 net61
*245 net62
*246 net63
*247 net64
*248 net65
*249 net66
*250 net67
*251 net68
*252 net69
*253 net7
*254 net70
*255 net71
*256 net72
*257 net73
*258 net74
*259 net75
*260 net76
*261 net77
*262 net78
*263 net79
*264 net8
*265 net80
*266 net81
*267 net82
*268 net83
*269 net84
*270 net85
*271 net86
*272 net87
*273 net88
*274 net89
*275 net9
*276 net90
*277 net91
*278 net92
*279 net93
*280 net94
*281 net95
*282 net96
*283 net97
*284 net98
*285 net99
*286 ANTENNA__054__I
*287 ANTENNA__055__I
*288 ANTENNA__056__I
*289 ANTENNA__057__I
*290 ANTENNA__058__I
*291 ANTENNA__059__I
*292 ANTENNA__060__I
*293 ANTENNA__061__I
*294 ANTENNA__062__I
*295 ANTENNA__063__I
*296 ANTENNA__064__I
*297 ANTENNA__065__I
*298 ANTENNA__088__I
*299 ANTENNA__089__I
*300 ANTENNA__090__I
*301 ANTENNA__091__I
*302 ANTENNA__092__I
*303 ANTENNA__093__I
*304 ANTENNA__094__I
*305 ANTENNA__095__I
*306 ANTENNA__096__I
*307 ANTENNA__097__I
*308 ANTENNA__098__I
*309 ANTENNA__099__I
*310 ANTENNA__100__I
*311 ANTENNA__101__I
*312 ANTENNA__102__I
*313 ANTENNA__103__I
*314 ANTENNA__104__I
*315 ANTENNA__105__I
*316 ANTENNA__116__CLK
*317 ANTENNA__117__CLK
*318 ANTENNA__118__CLK
*319 ANTENNA__119__CLK
*320 ANTENNA__120__CLK
*321 ANTENNA__121__CLK
*322 ANTENNA__122__CLK
*323 ANTENNA__123__CLK
*324 ANTENNA__124__CLK
*325 ANTENNA__125__CLK
*326 ANTENNA__129__CLK
*327 ANTENNA__138__CLK
*328 ANTENNA__139__CLK
*329 ANTENNA__140__CLK
*330 ANTENNA__141__CLK
*331 ANTENNA__142__CLK
*332 ANTENNA__143__CLK
*333 ANTENNA__144__CLK
*334 ANTENNA__145__CLK
*335 ANTENNA__147__CLK
*336 ANTENNA__148__CLK
*337 ANTENNA__150__CLK
*338 ANTENNA__151__CLK
*339 ANTENNA__152__CLK
*340 ANTENNA__153__CLK
*341 ANTENNA_clkbuf_0_prog_clk_I
*342 ANTENNA_input10_I
*343 ANTENNA_input11_I
*344 ANTENNA_input12_I
*345 ANTENNA_input13_I
*346 ANTENNA_input14_I
*347 ANTENNA_input15_I
*348 ANTENNA_input16_I
*349 ANTENNA_input17_I
*350 ANTENNA_input18_I
*351 ANTENNA_input1_I
*352 ANTENNA_input2_I
*353 ANTENNA_input3_I
*354 ANTENNA_input4_I
*355 ANTENNA_input5_I
*356 ANTENNA_input6_I
*357 ANTENNA_input7_I
*358 ANTENNA_input8_I
*359 ANTENNA_input9_I
*360 FILLER_0_0_118
*361 FILLER_0_0_132
*362 FILLER_0_0_148
*363 FILLER_0_0_150
*364 FILLER_0_0_163
*365 FILLER_0_0_172
*366 FILLER_0_0_174
*367 FILLER_0_0_185
*368 FILLER_0_0_199
*369 FILLER_0_0_2
*370 FILLER_0_0_203
*371 FILLER_0_0_206
*372 FILLER_0_0_211
*373 FILLER_0_0_219
*374 FILLER_0_0_236
*375 FILLER_0_0_240
*376 FILLER_0_0_36
*377 FILLER_0_0_70
*378 FILLER_0_0_86
*379 FILLER_0_0_94
*380 FILLER_0_10_103
*381 FILLER_0_10_107
*382 FILLER_0_10_123
*383 FILLER_0_10_125
*384 FILLER_0_10_172
*385 FILLER_0_10_174
*386 FILLER_0_10_18
*387 FILLER_0_10_2
*388 FILLER_0_10_239
*389 FILLER_0_10_37
*390 FILLER_0_10_45
*391 FILLER_0_10_49
*392 FILLER_0_10_51
*393 FILLER_0_10_92
*394 FILLER_0_10_99
*395 FILLER_0_11_122
*396 FILLER_0_11_138
*397 FILLER_0_11_14
*398 FILLER_0_11_16
*399 FILLER_0_11_2
*400 FILLER_0_11_212
*401 FILLER_0_11_216
*402 FILLER_0_11_218
*403 FILLER_0_11_237
*404 FILLER_0_11_59
*405 FILLER_0_11_6
*406 FILLER_0_11_63
*407 FILLER_0_12_103
*408 FILLER_0_12_107
*409 FILLER_0_12_115
*410 FILLER_0_12_119
*411 FILLER_0_12_172
*412 FILLER_0_12_174
*413 FILLER_0_12_177
*414 FILLER_0_12_181
*415 FILLER_0_12_189
*416 FILLER_0_12_237
*417 FILLER_0_12_26
*418 FILLER_0_12_34
*419 FILLER_0_12_37
*420 FILLER_0_12_44
*421 FILLER_0_12_48
*422 FILLER_0_12_52
*423 FILLER_0_12_8
*424 FILLER_0_13_121
*425 FILLER_0_13_125
*426 FILLER_0_13_133
*427 FILLER_0_13_137
*428 FILLER_0_13_139
*429 FILLER_0_13_142
*430 FILLER_0_13_150
*431 FILLER_0_13_18
*432 FILLER_0_13_2
*433 FILLER_0_13_201
*434 FILLER_0_13_205
*435 FILLER_0_13_209
*436 FILLER_0_13_212
*437 FILLER_0_13_216
*438 FILLER_0_13_218
*439 FILLER_0_13_22
*440 FILLER_0_13_237
*441 FILLER_0_13_24
*442 FILLER_0_13_59
*443 FILLER_0_13_63
*444 FILLER_0_13_72
*445 FILLER_0_13_80
*446 FILLER_0_13_84
*447 FILLER_0_13_86
*448 FILLER_0_14_121
*449 FILLER_0_14_125
*450 FILLER_0_14_161
*451 FILLER_0_14_163
*452 FILLER_0_14_166
*453 FILLER_0_14_170
*454 FILLER_0_14_172
*455 FILLER_0_14_177
*456 FILLER_0_14_179
*457 FILLER_0_14_186
*458 FILLER_0_14_188
*459 FILLER_0_14_2
*460 FILLER_0_14_26
*461 FILLER_0_14_34
*462 FILLER_0_14_37
*463 FILLER_0_14_81
*464 FILLER_0_14_89
*465 FILLER_0_15_136
*466 FILLER_0_15_142
*467 FILLER_0_15_180
*468 FILLER_0_15_184
*469 FILLER_0_15_186
*470 FILLER_0_15_2
*471 FILLER_0_15_205
*472 FILLER_0_15_209
*473 FILLER_0_15_228
*474 FILLER_0_15_232
*475 FILLER_0_15_236
*476 FILLER_0_15_240
*477 FILLER_0_15_40
*478 FILLER_0_15_44
*479 FILLER_0_15_61
*480 FILLER_0_15_69
*481 FILLER_0_16_141
*482 FILLER_0_16_149
*483 FILLER_0_16_172
*484 FILLER_0_16_174
*485 FILLER_0_16_18
*486 FILLER_0_16_2
*487 FILLER_0_16_227
*488 FILLER_0_16_26
*489 FILLER_0_16_28
*490 FILLER_0_16_43
*491 FILLER_0_16_81
*492 FILLER_0_17_115
*493 FILLER_0_17_123
*494 FILLER_0_17_142
*495 FILLER_0_17_146
*496 FILLER_0_17_149
*497 FILLER_0_17_2
*498 FILLER_0_17_20
*499 FILLER_0_17_209
*500 FILLER_0_17_212
*501 FILLER_0_17_216
*502 FILLER_0_17_220
*503 FILLER_0_17_237
*504 FILLER_0_17_28
*505 FILLER_0_17_63
*506 FILLER_0_17_67
*507 FILLER_0_17_69
*508 FILLER_0_17_78
*509 FILLER_0_17_80
*510 FILLER_0_18_10
*511 FILLER_0_18_100
*512 FILLER_0_18_104
*513 FILLER_0_18_107
*514 FILLER_0_18_115
*515 FILLER_0_18_119
*516 FILLER_0_18_160
*517 FILLER_0_18_167
*518 FILLER_0_18_177
*519 FILLER_0_18_181
*520 FILLER_0_18_185
*521 FILLER_0_18_202
*522 FILLER_0_18_206
*523 FILLER_0_18_26
*524 FILLER_0_18_34
*525 FILLER_0_18_37
*526 FILLER_0_18_59
*527 FILLER_0_19_135
*528 FILLER_0_19_139
*529 FILLER_0_19_176
*530 FILLER_0_19_180
*531 FILLER_0_19_184
*532 FILLER_0_19_2
*533 FILLER_0_19_207
*534 FILLER_0_19_209
*535 FILLER_0_19_212
*536 FILLER_0_19_220
*537 FILLER_0_19_224
*538 FILLER_0_19_42
*539 FILLER_0_19_50
*540 FILLER_0_19_6
*541 FILLER_0_19_67
*542 FILLER_0_19_69
*543 FILLER_0_19_72
*544 FILLER_0_19_80
*545 FILLER_0_1_100
*546 FILLER_0_1_104
*547 FILLER_0_1_112
*548 FILLER_0_1_127
*549 FILLER_0_1_135
*550 FILLER_0_1_139
*551 FILLER_0_1_142
*552 FILLER_0_1_146
*553 FILLER_0_1_152
*554 FILLER_0_1_162
*555 FILLER_0_1_2
*556 FILLER_0_1_212
*557 FILLER_0_1_216
*558 FILLER_0_1_218
*559 FILLER_0_1_66
*560 FILLER_0_1_72
*561 FILLER_0_1_88
*562 FILLER_0_1_96
*563 FILLER_0_20_141
*564 FILLER_0_20_149
*565 FILLER_0_20_166
*566 FILLER_0_20_174
*567 FILLER_0_20_2
*568 FILLER_0_20_211
*569 FILLER_0_20_215
*570 FILLER_0_20_223
*571 FILLER_0_20_34
*572 FILLER_0_20_37
*573 FILLER_0_20_53
*574 FILLER_0_20_61
*575 FILLER_0_20_63
*576 FILLER_0_20_80
*577 FILLER_0_20_88
*578 FILLER_0_21_106
*579 FILLER_0_21_114
*580 FILLER_0_21_118
*581 FILLER_0_21_122
*582 FILLER_0_21_139
*583 FILLER_0_21_142
*584 FILLER_0_21_150
*585 FILLER_0_21_154
*586 FILLER_0_21_189
*587 FILLER_0_21_193
*588 FILLER_0_21_2
*589 FILLER_0_21_209
*590 FILLER_0_21_212
*591 FILLER_0_21_216
*592 FILLER_0_21_218
*593 FILLER_0_21_237
*594 FILLER_0_21_66
*595 FILLER_0_21_72
*596 FILLER_0_21_80
*597 FILLER_0_21_98
*598 FILLER_0_22_101
*599 FILLER_0_22_107
*600 FILLER_0_22_139
*601 FILLER_0_22_141
*602 FILLER_0_22_144
*603 FILLER_0_22_160
*604 FILLER_0_22_168
*605 FILLER_0_22_172
*606 FILLER_0_22_174
*607 FILLER_0_22_177
*608 FILLER_0_22_2
*609 FILLER_0_22_239
*610 FILLER_0_22_34
*611 FILLER_0_22_37
*612 FILLER_0_23_104
*613 FILLER_0_23_120
*614 FILLER_0_23_136
*615 FILLER_0_23_142
*616 FILLER_0_23_2
*617 FILLER_0_23_206
*618 FILLER_0_23_212
*619 FILLER_0_23_216
*620 FILLER_0_23_218
*621 FILLER_0_23_237
*622 FILLER_0_23_66
*623 FILLER_0_23_72
*624 FILLER_0_24_101
*625 FILLER_0_24_107
*626 FILLER_0_24_171
*627 FILLER_0_24_177
*628 FILLER_0_24_2
*629 FILLER_0_24_209
*630 FILLER_0_24_225
*631 FILLER_0_24_34
*632 FILLER_0_24_37
*633 FILLER_0_25_136
*634 FILLER_0_25_142
*635 FILLER_0_25_2
*636 FILLER_0_25_206
*637 FILLER_0_25_212
*638 FILLER_0_25_220
*639 FILLER_0_25_224
*640 FILLER_0_25_226
*641 FILLER_0_25_66
*642 FILLER_0_25_72
*643 FILLER_0_26_103
*644 FILLER_0_26_107
*645 FILLER_0_26_139
*646 FILLER_0_26_147
*647 FILLER_0_26_151
*648 FILLER_0_26_153
*649 FILLER_0_26_160
*650 FILLER_0_26_168
*651 FILLER_0_26_172
*652 FILLER_0_26_174
*653 FILLER_0_26_177
*654 FILLER_0_26_2
*655 FILLER_0_26_209
*656 FILLER_0_26_225
*657 FILLER_0_26_34
*658 FILLER_0_26_37
*659 FILLER_0_26_75
*660 FILLER_0_26_91
*661 FILLER_0_26_99
*662 FILLER_0_27_100
*663 FILLER_0_27_107
*664 FILLER_0_27_139
*665 FILLER_0_27_142
*666 FILLER_0_27_174
*667 FILLER_0_27_178
*668 FILLER_0_27_180
*669 FILLER_0_27_183
*670 FILLER_0_27_189
*671 FILLER_0_27_2
*672 FILLER_0_27_205
*673 FILLER_0_27_209
*674 FILLER_0_27_212
*675 FILLER_0_27_234
*676 FILLER_0_27_236
*677 FILLER_0_27_66
*678 FILLER_0_27_72
*679 FILLER_0_27_88
*680 FILLER_0_27_96
*681 FILLER_0_28_117
*682 FILLER_0_28_125
*683 FILLER_0_28_129
*684 FILLER_0_28_132
*685 FILLER_0_28_139
*686 FILLER_0_28_143
*687 FILLER_0_28_161
*688 FILLER_0_28_195
*689 FILLER_0_28_22
*690 FILLER_0_28_227
*691 FILLER_0_28_30
*692 FILLER_0_28_34
*693 FILLER_0_28_37
*694 FILLER_0_28_6
*695 FILLER_0_28_69
*696 FILLER_0_28_73
*697 FILLER_0_28_81
*698 FILLER_0_28_95
*699 FILLER_0_29_104
*700 FILLER_0_29_119
*701 FILLER_0_29_123
*702 FILLER_0_29_138
*703 FILLER_0_29_149
*704 FILLER_0_29_163
*705 FILLER_0_29_167
*706 FILLER_0_29_169
*707 FILLER_0_29_182
*708 FILLER_0_29_196
*709 FILLER_0_29_2
*710 FILLER_0_29_206
*711 FILLER_0_29_210
*712 FILLER_0_29_215
*713 FILLER_0_29_219
*714 FILLER_0_29_240
*715 FILLER_0_29_36
*716 FILLER_0_29_52
*717 FILLER_0_29_54
*718 FILLER_0_29_59
*719 FILLER_0_29_70
*720 FILLER_0_29_72
*721 FILLER_0_29_89
*722 FILLER_0_29_93
*723 FILLER_0_2_101
*724 FILLER_0_2_107
*725 FILLER_0_2_139
*726 FILLER_0_2_155
*727 FILLER_0_2_171
*728 FILLER_0_2_177
*729 FILLER_0_2_198
*730 FILLER_0_2_2
*731 FILLER_0_2_206
*732 FILLER_0_2_34
*733 FILLER_0_2_37
*734 FILLER_0_3_104
*735 FILLER_0_3_106
*736 FILLER_0_3_113
*737 FILLER_0_3_117
*738 FILLER_0_3_119
*739 FILLER_0_3_128
*740 FILLER_0_3_136
*741 FILLER_0_3_142
*742 FILLER_0_3_158
*743 FILLER_0_3_166
*744 FILLER_0_3_170
*745 FILLER_0_3_195
*746 FILLER_0_3_2
*747 FILLER_0_3_203
*748 FILLER_0_3_212
*749 FILLER_0_3_220
*750 FILLER_0_3_222
*751 FILLER_0_3_66
*752 FILLER_0_3_72
*753 FILLER_0_4_103
*754 FILLER_0_4_107
*755 FILLER_0_4_115
*756 FILLER_0_4_132
*757 FILLER_0_4_164
*758 FILLER_0_4_172
*759 FILLER_0_4_174
*760 FILLER_0_4_177
*761 FILLER_0_4_179
*762 FILLER_0_4_196
*763 FILLER_0_4_2
*764 FILLER_0_4_240
*765 FILLER_0_4_34
*766 FILLER_0_4_37
*767 FILLER_0_4_53
*768 FILLER_0_4_63
*769 FILLER_0_4_67
*770 FILLER_0_4_99
*771 FILLER_0_5_104
*772 FILLER_0_5_108
*773 FILLER_0_5_116
*774 FILLER_0_5_136
*775 FILLER_0_5_142
*776 FILLER_0_5_174
*777 FILLER_0_5_212
*778 FILLER_0_5_216
*779 FILLER_0_5_220
*780 FILLER_0_5_36
*781 FILLER_0_5_40
*782 FILLER_0_5_58
*783 FILLER_0_5_66
*784 FILLER_0_5_72
*785 FILLER_0_5_89
*786 FILLER_0_5_97
*787 FILLER_0_6_107
*788 FILLER_0_6_135
*789 FILLER_0_6_139
*790 FILLER_0_6_143
*791 FILLER_0_6_160
*792 FILLER_0_6_168
*793 FILLER_0_6_172
*794 FILLER_0_6_174
*795 FILLER_0_6_177
*796 FILLER_0_6_185
*797 FILLER_0_6_2
*798 FILLER_0_6_202
*799 FILLER_0_6_206
*800 FILLER_0_6_24
*801 FILLER_0_6_32
*802 FILLER_0_6_34
*803 FILLER_0_6_37
*804 FILLER_0_6_44
*805 FILLER_0_6_48
*806 FILLER_0_6_52
*807 FILLER_0_6_6
*808 FILLER_0_6_69
*809 FILLER_0_7_100
*810 FILLER_0_7_135
*811 FILLER_0_7_139
*812 FILLER_0_7_142
*813 FILLER_0_7_178
*814 FILLER_0_7_182
*815 FILLER_0_7_186
*816 FILLER_0_7_2
*817 FILLER_0_7_209
*818 FILLER_0_7_212
*819 FILLER_0_7_220
*820 FILLER_0_7_237
*821 FILLER_0_7_42
*822 FILLER_0_7_50
*823 FILLER_0_7_6
*824 FILLER_0_7_72
*825 FILLER_0_7_92
*826 FILLER_0_8_107
*827 FILLER_0_8_123
*828 FILLER_0_8_125
*829 FILLER_0_8_166
*830 FILLER_0_8_173
*831 FILLER_0_8_18
*832 FILLER_0_8_2
*833 FILLER_0_8_203
*834 FILLER_0_8_22
*835 FILLER_0_8_24
*836 FILLER_0_8_31
*837 FILLER_0_9_139
*838 FILLER_0_9_142
*839 FILLER_0_9_146
*840 FILLER_0_9_154
*841 FILLER_0_9_158
*842 FILLER_0_9_162
*843 FILLER_0_9_200
*844 FILLER_0_9_212
*845 FILLER_0_9_220
*846 FILLER_0_9_237
*847 FILLER_0_9_72
*848 FILLER_0_9_90
*849 FILLER_0_9_94
*850 FILLER_0_9_98
*851 PHY_EDGE_ROW_0_Left_30
*852 PHY_EDGE_ROW_0_Right_0
*853 PHY_EDGE_ROW_10_Left_40
*854 PHY_EDGE_ROW_10_Right_10
*855 PHY_EDGE_ROW_11_Left_41
*856 PHY_EDGE_ROW_11_Right_11
*857 PHY_EDGE_ROW_12_Left_42
*858 PHY_EDGE_ROW_12_Right_12
*859 PHY_EDGE_ROW_13_Left_43
*860 PHY_EDGE_ROW_13_Right_13
*861 PHY_EDGE_ROW_14_Left_44
*862 PHY_EDGE_ROW_14_Right_14
*863 PHY_EDGE_ROW_15_Left_45
*864 PHY_EDGE_ROW_15_Right_15
*865 PHY_EDGE_ROW_16_Left_46
*866 PHY_EDGE_ROW_16_Right_16
*867 PHY_EDGE_ROW_17_Left_47
*868 PHY_EDGE_ROW_17_Right_17
*869 PHY_EDGE_ROW_18_Left_48
*870 PHY_EDGE_ROW_18_Right_18
*871 PHY_EDGE_ROW_19_Left_49
*872 PHY_EDGE_ROW_19_Right_19
*873 PHY_EDGE_ROW_1_Left_31
*874 PHY_EDGE_ROW_1_Right_1
*875 PHY_EDGE_ROW_20_Left_50
*876 PHY_EDGE_ROW_20_Right_20
*877 PHY_EDGE_ROW_21_Left_51
*878 PHY_EDGE_ROW_21_Right_21
*879 PHY_EDGE_ROW_22_Left_52
*880 PHY_EDGE_ROW_22_Right_22
*881 PHY_EDGE_ROW_23_Left_53
*882 PHY_EDGE_ROW_23_Right_23
*883 PHY_EDGE_ROW_24_Left_54
*884 PHY_EDGE_ROW_24_Right_24
*885 PHY_EDGE_ROW_25_Left_55
*886 PHY_EDGE_ROW_25_Right_25
*887 PHY_EDGE_ROW_26_Left_56
*888 PHY_EDGE_ROW_26_Right_26
*889 PHY_EDGE_ROW_27_Left_57
*890 PHY_EDGE_ROW_27_Right_27
*891 PHY_EDGE_ROW_28_Left_58
*892 PHY_EDGE_ROW_28_Right_28
*893 PHY_EDGE_ROW_29_Left_59
*894 PHY_EDGE_ROW_29_Right_29
*895 PHY_EDGE_ROW_2_Left_32
*896 PHY_EDGE_ROW_2_Right_2
*897 PHY_EDGE_ROW_3_Left_33
*898 PHY_EDGE_ROW_3_Right_3
*899 PHY_EDGE_ROW_4_Left_34
*900 PHY_EDGE_ROW_4_Right_4
*901 PHY_EDGE_ROW_5_Left_35
*902 PHY_EDGE_ROW_5_Right_5
*903 PHY_EDGE_ROW_6_Left_36
*904 PHY_EDGE_ROW_6_Right_6
*905 PHY_EDGE_ROW_7_Left_37
*906 PHY_EDGE_ROW_7_Right_7
*907 PHY_EDGE_ROW_8_Left_38
*908 PHY_EDGE_ROW_8_Right_8
*909 PHY_EDGE_ROW_9_Left_39
*910 PHY_EDGE_ROW_9_Right_9
*911 TAP_TAPCELL_ROW_0_60
*912 TAP_TAPCELL_ROW_0_61
*913 TAP_TAPCELL_ROW_0_62
*914 TAP_TAPCELL_ROW_0_63
*915 TAP_TAPCELL_ROW_0_64
*916 TAP_TAPCELL_ROW_0_65
*917 TAP_TAPCELL_ROW_0_66
*918 TAP_TAPCELL_ROW_10_94
*919 TAP_TAPCELL_ROW_10_95
*920 TAP_TAPCELL_ROW_10_96
*921 TAP_TAPCELL_ROW_11_97
*922 TAP_TAPCELL_ROW_11_98
*923 TAP_TAPCELL_ROW_11_99
*924 TAP_TAPCELL_ROW_12_100
*925 TAP_TAPCELL_ROW_12_101
*926 TAP_TAPCELL_ROW_12_102
*927 TAP_TAPCELL_ROW_13_103
*928 TAP_TAPCELL_ROW_13_104
*929 TAP_TAPCELL_ROW_13_105
*930 TAP_TAPCELL_ROW_14_106
*931 TAP_TAPCELL_ROW_14_107
*932 TAP_TAPCELL_ROW_14_108
*933 TAP_TAPCELL_ROW_15_109
*934 TAP_TAPCELL_ROW_15_110
*935 TAP_TAPCELL_ROW_15_111
*936 TAP_TAPCELL_ROW_16_112
*937 TAP_TAPCELL_ROW_16_113
*938 TAP_TAPCELL_ROW_16_114
*939 TAP_TAPCELL_ROW_17_115
*940 TAP_TAPCELL_ROW_17_116
*941 TAP_TAPCELL_ROW_17_117
*942 TAP_TAPCELL_ROW_18_118
*943 TAP_TAPCELL_ROW_18_119
*944 TAP_TAPCELL_ROW_18_120
*945 TAP_TAPCELL_ROW_19_121
*946 TAP_TAPCELL_ROW_19_122
*947 TAP_TAPCELL_ROW_19_123
*948 TAP_TAPCELL_ROW_1_67
*949 TAP_TAPCELL_ROW_1_68
*950 TAP_TAPCELL_ROW_1_69
*951 TAP_TAPCELL_ROW_20_124
*952 TAP_TAPCELL_ROW_20_125
*953 TAP_TAPCELL_ROW_20_126
*954 TAP_TAPCELL_ROW_21_127
*955 TAP_TAPCELL_ROW_21_128
*956 TAP_TAPCELL_ROW_21_129
*957 TAP_TAPCELL_ROW_22_130
*958 TAP_TAPCELL_ROW_22_131
*959 TAP_TAPCELL_ROW_22_132
*960 TAP_TAPCELL_ROW_23_133
*961 TAP_TAPCELL_ROW_23_134
*962 TAP_TAPCELL_ROW_23_135
*963 TAP_TAPCELL_ROW_24_136
*964 TAP_TAPCELL_ROW_24_137
*965 TAP_TAPCELL_ROW_24_138
*966 TAP_TAPCELL_ROW_25_139
*967 TAP_TAPCELL_ROW_25_140
*968 TAP_TAPCELL_ROW_25_141
*969 TAP_TAPCELL_ROW_26_142
*970 TAP_TAPCELL_ROW_26_143
*971 TAP_TAPCELL_ROW_26_144
*972 TAP_TAPCELL_ROW_27_145
*973 TAP_TAPCELL_ROW_27_146
*974 TAP_TAPCELL_ROW_27_147
*975 TAP_TAPCELL_ROW_28_148
*976 TAP_TAPCELL_ROW_28_149
*977 TAP_TAPCELL_ROW_28_150
*978 TAP_TAPCELL_ROW_29_151
*979 TAP_TAPCELL_ROW_29_152
*980 TAP_TAPCELL_ROW_29_153
*981 TAP_TAPCELL_ROW_29_154
*982 TAP_TAPCELL_ROW_29_155
*983 TAP_TAPCELL_ROW_29_156
*984 TAP_TAPCELL_ROW_29_157
*985 TAP_TAPCELL_ROW_2_70
*986 TAP_TAPCELL_ROW_2_71
*987 TAP_TAPCELL_ROW_2_72
*988 TAP_TAPCELL_ROW_3_73
*989 TAP_TAPCELL_ROW_3_74
*990 TAP_TAPCELL_ROW_3_75
*991 TAP_TAPCELL_ROW_4_76
*992 TAP_TAPCELL_ROW_4_77
*993 TAP_TAPCELL_ROW_4_78
*994 TAP_TAPCELL_ROW_5_79
*995 TAP_TAPCELL_ROW_5_80
*996 TAP_TAPCELL_ROW_5_81
*997 TAP_TAPCELL_ROW_6_82
*998 TAP_TAPCELL_ROW_6_83
*999 TAP_TAPCELL_ROW_6_84
*1000 TAP_TAPCELL_ROW_7_85
*1001 TAP_TAPCELL_ROW_7_86
*1002 TAP_TAPCELL_ROW_7_87
*1003 TAP_TAPCELL_ROW_8_88
*1004 TAP_TAPCELL_ROW_8_89
*1005 TAP_TAPCELL_ROW_8_90
*1006 TAP_TAPCELL_ROW_9_91
*1007 TAP_TAPCELL_ROW_9_92
*1008 TAP_TAPCELL_ROW_9_93
*1009 _053_
*1010 _054_
*1011 _055_
*1012 _056_
*1013 _057_
*1014 _058_
*1015 _059_
*1016 _060_
*1017 _061_
*1018 _062_
*1019 _063_
*1020 _064_
*1021 _065_
*1022 _066_
*1023 _067_
*1024 _068_
*1025 _069_
*1026 _070_
*1027 _071_
*1028 _072_
*1029 _073_
*1030 _074_
*1031 _075_
*1032 _076_
*1033 _077_
*1034 _078_
*1035 _079_
*1036 _080_
*1037 _081_
*1038 _082_
*1039 _083_
*1040 _084_
*1041 _085_
*1042 _086_
*1043 _087_
*1044 _088_
*1045 _089_
*1046 _090_
*1047 _091_
*1048 _092_
*1049 _093_
*1050 _094_
*1051 _095_
*1052 _096_
*1053 _097_
*1054 _098_
*1055 _099_
*1056 _100_
*1057 _101_
*1058 _102_
*1059 _103_
*1060 _104_
*1061 _105_
*1062 _106_
*1063 _107_
*1064 _108_
*1065 _109_
*1066 _110_
*1067 _111_
*1068 _112_
*1069 _113_
*1070 _114_
*1071 _115_
*1072 _116_
*1073 _117_
*1074 _118_
*1075 _119_
*1076 _120_
*1077 _121_
*1078 _122_
*1079 _123_
*1080 _124_
*1081 _125_
*1082 _126_
*1083 _127_
*1084 _128_
*1085 _129_
*1086 _130_
*1087 _131_
*1088 _132_
*1089 _133_
*1090 _134_
*1091 _135_
*1092 _136_
*1093 _137_
*1094 _138_
*1095 _139_
*1096 _140_
*1097 _141_
*1098 _142_
*1099 _143_
*1100 _144_
*1101 _145_
*1102 _146_
*1103 _147_
*1104 _148_
*1105 _149_
*1106 _150_
*1107 _151_
*1108 _152_
*1109 _153_
*1110 _178_
*1111 _179_
*1112 _180_
*1113 _181_
*1114 _182_
*1115 _183_
*1116 _184_
*1117 _185_
*1118 _186_
*1119 _187_
*1120 _188_
*1121 _189_
*1122 _190_
*1123 _191_
*1124 _192_
*1125 _193_
*1126 clkbuf_0_prog_clk
*1127 clkbuf_2_0__f_prog_clk
*1128 clkbuf_2_1__f_prog_clk
*1129 clkbuf_2_2__f_prog_clk
*1130 clkbuf_2_3__f_prog_clk
*1131 hold1
*1132 hold10
*1133 hold11
*1134 hold12
*1135 hold13
*1136 hold14
*1137 hold15
*1138 hold16
*1139 hold17
*1140 hold18
*1141 hold19
*1142 hold2
*1143 hold20
*1144 hold21
*1145 hold22
*1146 hold23
*1147 hold24
*1148 hold25
*1149 hold26
*1150 hold27
*1151 hold28
*1152 hold29
*1153 hold3
*1154 hold30
*1155 hold31
*1156 hold32
*1157 hold33
*1158 hold34
*1159 hold35
*1160 hold36
*1161 hold37
*1162 hold38
*1163 hold39
*1164 hold4
*1165 hold40
*1166 hold41
*1167 hold42
*1168 hold43
*1169 hold44
*1170 hold45
*1171 hold46
*1172 hold47
*1173 hold5
*1174 hold6
*1175 hold7
*1176 hold8
*1177 hold9
*1178 input1
*1179 input10
*1180 input11
*1181 input12
*1182 input13
*1183 input14
*1184 input15
*1185 input16
*1186 input17
*1187 input18
*1188 input2
*1189 input3
*1190 input4
*1191 input5
*1192 input6
*1193 input7
*1194 input8
*1195 input9
*1196 output19
*1197 output20
*1198 output21
*1199 output22
*1200 output23
*1201 output24
*1202 output25
*1203 output26
*1204 output27
*1205 output28
*1206 output29
*1207 output30
*1208 output31
*1209 output32
*1210 output33
*1211 output34
*1212 output35
*1213 sb_0__2__36
*1214 sb_0__2__37
*1215 sb_0__2__38
*1216 sb_0__2__39
*1217 sb_0__2__40
*1218 sb_0__2__41
*1219 sb_0__2__42
*1220 sb_0__2__43
*1221 sb_0__2__44
*1222 sb_0__2__45
*1223 sb_0__2__46
*1224 sb_0__2__47
*1225 sb_0__2__48
*1226 sb_0__2__49
*1227 sb_0__2__50
*1228 sb_0__2__51
*1229 sb_0__2__52
*1230 sb_0__2__53
*1231 sb_0__2__54
*1232 sb_0__2__55
*1233 sb_0__2__56
*1234 sb_0__2__57
*1235 sb_0__2__58
*1236 sb_0__2__59

*PORTS
bottom_left_grid_right_width_0_height_0_subtile_0__pin_inpad_0_ I
bottom_left_grid_right_width_0_height_0_subtile_1__pin_inpad_0_ I
bottom_left_grid_right_width_0_height_0_subtile_2__pin_inpad_0_ I
bottom_left_grid_right_width_0_height_0_subtile_3__pin_inpad_0_ I
bottom_right_grid_left_width_0_height_0_subtile_0__pin_O_3_ I
bottom_right_grid_left_width_0_height_0_subtile_0__pin_O_7_ I
ccff_head I
ccff_tail O
chanx_right_in[0] I
chanx_right_in[10] I
chanx_right_in[11] I
chanx_right_in[12] I
chanx_right_in[13] I
chanx_right_in[14] I
chanx_right_in[15] I
chanx_right_in[16] I
chanx_right_in[17] I
chanx_right_in[18] I
chanx_right_in[19] I
chanx_right_in[1] I
chanx_right_in[2] I
chanx_right_in[3] I
chanx_right_in[4] I
chanx_right_in[5] I
chanx_right_in[6] I
chanx_right_in[7] I
chanx_right_in[8] I
chanx_right_in[9] I
chanx_right_out[0] O
chanx_right_out[10] O
chanx_right_out[11] O
chanx_right_out[12] O
chanx_right_out[13] O
chanx_right_out[14] O
chanx_right_out[15] O
chanx_right_out[16] O
chanx_right_out[17] O
chanx_right_out[18] O
chanx_right_out[19] O
chanx_right_out[1] O
chanx_right_out[2] O
chanx_right_out[3] O
chanx_right_out[4] O
chanx_right_out[5] O
chanx_right_out[6] O
chanx_right_out[7] O
chanx_right_out[8] O
chanx_right_out[9] O
chany_bottom_in[0] I
chany_bottom_in[10] I
chany_bottom_in[11] I
chany_bottom_in[12] I
chany_bottom_in[13] I
chany_bottom_in[14] I
chany_bottom_in[15] I
chany_bottom_in[16] I
chany_bottom_in[17] I
chany_bottom_in[18] I
chany_bottom_in[19] I
chany_bottom_in[1] I
chany_bottom_in[2] I
chany_bottom_in[3] I
chany_bottom_in[4] I
chany_bottom_in[5] I
chany_bottom_in[6] I
chany_bottom_in[7] I
chany_bottom_in[8] I
chany_bottom_in[9] I
chany_bottom_out[0] O
chany_bottom_out[10] O
chany_bottom_out[11] O
chany_bottom_out[12] O
chany_bottom_out[13] O
chany_bottom_out[14] O
chany_bottom_out[15] O
chany_bottom_out[16] O
chany_bottom_out[17] O
chany_bottom_out[18] O
chany_bottom_out[19] O
chany_bottom_out[1] O
chany_bottom_out[2] O
chany_bottom_out[3] O
chany_bottom_out[4] O
chany_bottom_out[5] O
chany_bottom_out[6] O
chany_bottom_out[7] O
chany_bottom_out[8] O
chany_bottom_out[9] O
pReset I
prog_clk I
right_bottom_grid_top_width_0_height_0_subtile_0__pin_O_0_ I
right_bottom_grid_top_width_0_height_0_subtile_0__pin_O_4_ I
right_top_grid_bottom_width_0_height_0_subtile_0__pin_inpad_0_ I
right_top_grid_bottom_width_0_height_0_subtile_1__pin_inpad_0_ I
right_top_grid_bottom_width_0_height_0_subtile_2__pin_inpad_0_ I
right_top_grid_bottom_width_0_height_0_subtile_3__pin_inpad_0_ I

*D_NET *7 0.000880141
*CONN
*P ccff_head I
*I *1178:I I *D gf180mcu_fd_sc_mcu7t5v0__clkbuf_1
*I *351:I I *D gf180mcu_fd_sc_mcu7t5v0__antenna
*CAP
1 ccff_head 0.000221988
2 *1178:I 0.000147134
3 *351:I 0
4 *7:7 0.000369122
5 *1178:I *1063:D 0.000141897
*RES
1 ccff_head *7:7 6.058 
2 *7:7 *351:I 4.5 
3 *7:7 *1178:I 5.64 
*END

*D_NET *8 0.00162076
*CONN
*P ccff_tail O
*I *1196:Z O *D gf180mcu_fd_sc_mcu7t5v0__buf_3
*CAP
1 ccff_tail 0.000569921
2 *1196:Z 0.000569921
3 ccff_tail *309:I 5.18896e-05
4 ccff_tail *335:I 0.000202974
5 ccff_tail *1135:I 0.000101813
6 ccff_tail *1175:I 2.23385e-05
7 ccff_tail *1196:I 5.86721e-05
8 ccff_tail *147:196 4.32304e-05
*RES
1 *1196:Z ccff_tail 13.066 
*END

*D_NET *9 0.00176729
*CONN
*P chanx_right_in[0] I
*I *1188:I I *D gf180mcu_fd_sc_mcu7t5v0__clkbuf_1
*I *352:I I *D gf180mcu_fd_sc_mcu7t5v0__antenna
*CAP
1 chanx_right_in[0] 0.000623934
2 *1188:I 7.60844e-05
3 *352:I 0
4 *9:5 0.000700018
5 *1188:I chanx_right_out[1] 7.71175e-06
6 *1188:I *1208:I 5.14116e-06
7 *9:5 chanx_right_out[1] 0.000111204
8 *9:5 chany_bottom_out[19] 0.000160962
9 *9:5 *1208:I 8.22324e-05
10 *9:5 *19:9 0
*RES
1 chanx_right_in[0] *9:5 5.054 
2 *9:5 *352:I 4.5 
3 *9:5 *1188:I 5.108 
*END

*D_NET *10 0.00166073
*CONN
*P chanx_right_in[10] I
*I *1189:I I *D gf180mcu_fd_sc_mcu7t5v0__clkbuf_1
*I *353:I I *D gf180mcu_fd_sc_mcu7t5v0__antenna
*CAP
1 chanx_right_in[10] 0.000577444
2 *1189:I 0.000183827
3 *353:I 0
4 *10:9 0.000761272
5 *1189:I chany_bottom_out[8] 0
6 *1189:I *1123:I 1.52691e-05
7 *10:9 chanx_right_out[13] 4.75558e-05
8 *10:9 chany_bottom_out[14] 0
9 *10:9 chany_bottom_out[8] 6.81204e-05
10 *10:9 *1123:I 7.24161e-06
*RES
1 chanx_right_in[10] *10:9 4.294 
2 *10:9 *353:I 4.5 
3 *10:9 *1189:I 14.716 
*END

*D_NET *11 0.00305001
*CONN
*P chanx_right_in[11] I
*I *1190:I I *D gf180mcu_fd_sc_mcu7t5v0__clkbuf_1
*I *354:I I *D gf180mcu_fd_sc_mcu7t5v0__antenna
*CAP
1 chanx_right_in[11] 0.0009196
2 *1190:I 0
3 *354:I 0.000312478
4 *11:13 0.00123208
5 *354:I *359:I 0
6 *354:I *1210:I 3.14479e-05
7 *11:13 chanx_right_out[11] 0.000298933
8 *11:13 chany_bottom_out[7] 0.00020256
9 *11:13 *1210:I 5.29084e-05
*RES
1 chanx_right_in[11] *11:13 15.6533 
2 *11:13 *354:I 6.324 
3 *11:13 *1190:I 4.5 
*END

*D_NET *12 0.0051757
*CONN
*P chanx_right_in[12] I
*I *355:I I *D gf180mcu_fd_sc_mcu7t5v0__antenna
*I *1191:I I *D gf180mcu_fd_sc_mcu7t5v0__clkbuf_1