*SPEF "ieee 1481-1999"
*DESIGN "sb_1__2_"
*DATE "11:11:11 Fri 11 11, 1111"
*VENDOR "OpenRCX"
*PROGRAM "Parallel Extraction"
*VERSION "1.0"
*DESIGN_FLOW "NAME_SCOPE LOCAL" "PIN_CAP NONE"
*DIVIDER /
*DELIMITER :
*BUS_DELIMITER []
*T_UNIT 1 NS
*C_UNIT 1 PF
*R_UNIT 1 OHM
*L_UNIT 1 HENRY

*NAME_MAP
*1 bottom_left_grid_right_width_0_height_0_subtile_0__pin_O_1_
*2 bottom_left_grid_right_width_0_height_0_subtile_0__pin_O_5_
*3 bottom_right_grid_left_width_0_height_0_subtile_0__pin_O_3_
*4 bottom_right_grid_left_width_0_height_0_subtile_0__pin_O_7_
*5 ccff_head
*6 ccff_tail
*7 chanx_left_in[0]
*8 chanx_left_in[10]
*9 chanx_left_in[11]
*10 chanx_left_in[12]
*11 chanx_left_in[13]
*12 chanx_left_in[14]
*13 chanx_left_in[15]
*14 chanx_left_in[16]
*15 chanx_left_in[17]
*16 chanx_left_in[18]
*17 chanx_left_in[19]
*18 chanx_left_in[1]
*19 chanx_left_in[2]
*20 chanx_left_in[3]
*21 chanx_left_in[4]
*22 chanx_left_in[5]
*23 chanx_left_in[6]
*24 chanx_left_in[7]
*25 chanx_left_in[8]
*26 chanx_left_in[9]
*27 net98
*28 chanx_left_out[10]
*29 chanx_left_out[11]
*30 net95
*31 chanx_left_out[13]
*32 chanx_left_out[14]
*33 chanx_left_out[15]
*34 net94
*35 chanx_left_out[17]
*36 chanx_left_out[18]
*37 chanx_left_out[19]
*38 chanx_left_out[1]
*39 chanx_left_out[2]
*40 chanx_left_out[3]
*41 net97
*42 chanx_left_out[5]
*43 chanx_left_out[6]
*44 chanx_left_out[7]
*45 net96
*46 chanx_left_out[9]
*47 chanx_right_in[0]
*48 chanx_right_in[10]
*49 chanx_right_in[11]
*50 chanx_right_in[12]
*51 chanx_right_in[13]
*52 chanx_right_in[14]
*53 chanx_right_in[15]
*54 chanx_right_in[16]
*55 chanx_right_in[17]
*56 chanx_right_in[18]
*57 chanx_right_in[19]
*58 chanx_right_in[1]
*59 chanx_right_in[2]
*60 chanx_right_in[3]
*61 chanx_right_in[4]
*62 chanx_right_in[5]
*63 chanx_right_in[6]
*64 chanx_right_in[7]
*65 chanx_right_in[8]
*66 chanx_right_in[9]
*67 net93
*68 chanx_right_out[10]
*69 chanx_right_out[11]
*70 net90
*71 chanx_right_out[13]
*72 chanx_right_out[14]
*73 chanx_right_out[15]
*74 net89
*75 chanx_right_out[17]
*76 chanx_right_out[18]
*77 chanx_right_out[19]
*78 chanx_right_out[1]
*79 chanx_right_out[2]
*80 chanx_right_out[3]
*81 net92
*82 chanx_right_out[5]
*83 chanx_right_out[6]
*84 chanx_right_out[7]
*85 net91
*86 chanx_right_out[9]
*87 chany_bottom_in[0]
*88 chany_bottom_in[10]
*89 chany_bottom_in[11]
*90 chany_bottom_in[12]
*91 chany_bottom_in[13]
*92 chany_bottom_in[14]
*93 chany_bottom_in[15]
*94 chany_bottom_in[16]
*95 chany_bottom_in[17]
*96 chany_bottom_in[18]
*97 chany_bottom_in[19]
*98 chany_bottom_in[1]
*99 chany_bottom_in[2]
*100 chany_bottom_in[3]
*101 chany_bottom_in[4]
*102 chany_bottom_in[5]
*103 chany_bottom_in[6]
*104 chany_bottom_in[7]
*105 chany_bottom_in[8]
*106 chany_bottom_in[9]
*107 net88
*108 net78
*109 net77
*110 net76
*111 net75
*112 net74
*113 chany_bottom_out[15]
*114 chany_bottom_out[16]
*115 chany_bottom_out[17]
*116 chany_bottom_out[18]
*117 chany_bottom_out[19]
*118 net87
*119 net86
*120 net85
*121 net84
*122 net83
*123 net82
*124 net81
*125 net80
*126 net79
*127 left_bottom_grid_top_width_0_height_0_subtile_0__pin_O_0_
*128 left_bottom_grid_top_width_0_height_0_subtile_0__pin_O_4_
*129 left_top_grid_bottom_width_0_height_0_subtile_0__pin_inpad_0_
*130 left_top_grid_bottom_width_0_height_0_subtile_1__pin_inpad_0_
*131 left_top_grid_bottom_width_0_height_0_subtile_2__pin_inpad_0_
*132 left_top_grid_bottom_width_0_height_0_subtile_3__pin_inpad_0_
*133 pReset
*134 prog_clk
*135 right_bottom_grid_top_width_0_height_0_subtile_0__pin_O_0_
*136 right_bottom_grid_top_width_0_height_0_subtile_0__pin_O_4_
*137 right_top_grid_bottom_width_0_height_0_subtile_0__pin_inpad_0_
*138 right_top_grid_bottom_width_0_height_0_subtile_1__pin_inpad_0_
*139 right_top_grid_bottom_width_0_height_0_subtile_2__pin_inpad_0_
*140 right_top_grid_bottom_width_0_height_0_subtile_3__pin_inpad_0_
*143 _000_
*144 _001_
*145 _002_
*146 _003_
*147 _004_
*148 _005_
*149 _006_
*150 _007_
*151 _008_
*152 _009_
*153 _010_
*154 _011_
*155 _012_
*156 _013_
*157 _014_
*158 _015_
*159 _016_
*160 _017_
*161 _018_
*162 _019_
*163 _020_
*164 _021_
*165 _022_
*166 _023_
*167 _024_
*168 _025_
*169 _026_
*170 _027_
*171 _028_
*172 _029_
*173 _030_
*174 _031_
*175 _032_
*176 _033_
*177 _034_
*178 _035_
*179 _036_
*180 _037_
*181 _038_
*182 _039_
*183 _040_
*184 _041_
*185 _042_
*186 _043_
*187 _044_
*188 _045_
*189 _046_
*190 _047_
*191 _048_
*192 _049_
*193 _050_
*194 _051_
*195 _052_
*196 _053_
*197 _054_
*198 _055_
*199 _056_
*200 _057_
*201 _058_
*202 _059_
*203 _060_
*204 _061_
*205 _062_
*206 _063_
*207 _064_
*208 _065_
*209 _066_
*210 _067_
*211 _068_
*212 _069_
*213 _070_
*214 _071_
*215 _072_
*216 _073_
*217 _074_
*218 _075_
*219 _076_
*220 _077_
*221 _078_
*222 _079_
*223 _080_
*224 _081_
*225 _082_
*226 _083_
*227 _084_
*228 _085_
*229 _086_
*230 _087_
*231 _088_
*232 _089_
*233 _090_
*234 _091_
*235 _092_
*236 _093_
*237 _094_
*238 _095_
*239 _096_
*240 _097_
*241 _098_
*242 _099_
*243 _100_
*244 _101_
*245 _102_
*246 _103_
*247 _104_
*248 _105_
*249 _106_
*250 _107_
*251 _108_
*252 _109_
*253 _110_
*254 _111_
*255 _112_
*256 _113_
*257 _114_
*258 _115_
*259 _116_
*260 _117_
*261 _118_
*262 _119_
*263 _120_
*264 _121_
*265 clknet_0_prog_clk
*266 clknet_3_0__leaf_prog_clk
*267 clknet_3_1__leaf_prog_clk
*268 clknet_3_2__leaf_prog_clk
*269 clknet_3_3__leaf_prog_clk
*270 clknet_3_4__leaf_prog_clk
*271 clknet_3_5__leaf_prog_clk
*272 clknet_3_6__leaf_prog_clk
*273 clknet_3_7__leaf_prog_clk
*274 mem_bottom_track_1\.DFFR_0_\.D
*275 mem_bottom_track_1\.DFFR_0_\.Q
*276 mem_bottom_track_1\.DFFR_1_\.Q
*277 mem_bottom_track_1\.DFFR_2_\.Q
*278 mem_bottom_track_1\.DFFR_3_\.Q
*279 mem_bottom_track_1\.DFFR_4_\.Q
*280 mem_bottom_track_1\.DFFR_5_\.Q
*281 mem_bottom_track_11\.DFFR_0_\.D
*282 mem_bottom_track_11\.DFFR_0_\.Q
*283 mem_bottom_track_11\.DFFR_1_\.Q
*284 mem_bottom_track_13\.DFFR_0_\.Q
*285 mem_bottom_track_13\.DFFR_1_\.Q
*286 mem_bottom_track_15\.DFFR_0_\.Q
*287 mem_bottom_track_15\.DFFR_1_\.Q
*288 mem_bottom_track_17\.DFFR_0_\.Q
*289 mem_bottom_track_17\.DFFR_1_\.Q
*290 mem_bottom_track_19\.DFFR_0_\.Q
*291 mem_bottom_track_19\.DFFR_1_\.Q
*292 mem_bottom_track_21\.DFFR_0_\.Q
*293 mem_bottom_track_21\.DFFR_1_\.Q
*294 mem_bottom_track_23\.DFFR_0_\.Q
*295 mem_bottom_track_23\.DFFR_1_\.Q
*296 mem_bottom_track_25\.DFFR_0_\.Q
*297 mem_bottom_track_25\.DFFR_1_\.Q
*298 mem_bottom_track_27\.DFFR_0_\.Q
*299 mem_bottom_track_27\.DFFR_1_\.Q
*300 mem_bottom_track_29\.DFFR_0_\.Q
*301 mem_bottom_track_29\.DFFR_1_\.Q
*302 mem_bottom_track_3\.DFFR_0_\.Q
*303 mem_bottom_track_3\.DFFR_1_\.Q
*304 mem_bottom_track_3\.DFFR_2_\.Q
*305 mem_bottom_track_3\.DFFR_3_\.Q
*306 mem_bottom_track_3\.DFFR_4_\.Q
*307 mem_bottom_track_3\.DFFR_5_\.Q
*308 mem_bottom_track_5\.DFFR_0_\.Q
*309 mem_bottom_track_5\.DFFR_1_\.Q
*310 mem_bottom_track_5\.DFFR_2_\.Q
*311 mem_bottom_track_5\.DFFR_3_\.Q
*312 mem_bottom_track_5\.DFFR_4_\.Q
*313 mem_bottom_track_5\.DFFR_5_\.Q
*314 mem_bottom_track_7\.DFFR_0_\.Q
*315 mem_bottom_track_7\.DFFR_1_\.Q
*316 mem_bottom_track_7\.DFFR_2_\.Q
*317 mem_bottom_track_7\.DFFR_3_\.Q
*318 mem_bottom_track_7\.DFFR_4_\.Q
*319 mem_bottom_track_7\.DFFR_5_\.Q
*320 mem_bottom_track_9\.DFFR_0_\.Q
*321 mem_left_track_1\.DFFR_0_\.Q
*322 mem_left_track_1\.DFFR_1_\.Q
*323 mem_left_track_1\.DFFR_2_\.Q
*324 mem_left_track_1\.DFFR_3_\.Q
*325 mem_left_track_1\.DFFR_4_\.Q
*326 mem_left_track_1\.DFFR_5_\.Q
*327 mem_left_track_1\.DFFR_6_\.Q
*328 mem_left_track_1\.DFFR_7_\.Q
*329 mem_left_track_17\.DFFR_0_\.D
*330 mem_left_track_17\.DFFR_0_\.Q
*331 mem_left_track_17\.DFFR_1_\.Q
*332 mem_left_track_17\.DFFR_2_\.Q
*333 mem_left_track_17\.DFFR_3_\.Q
*334 mem_left_track_17\.DFFR_4_\.Q
*335 mem_left_track_17\.DFFR_5_\.Q
*336 mem_left_track_25\.DFFR_0_\.Q
*337 mem_left_track_25\.DFFR_1_\.Q
*338 mem_left_track_25\.DFFR_2_\.Q
*339 mem_left_track_25\.DFFR_3_\.Q
*340 mem_left_track_25\.DFFR_4_\.Q
*341 mem_left_track_25\.DFFR_5_\.Q
*342 mem_left_track_33\.DFFR_0_\.Q
*343 mem_left_track_33\.DFFR_1_\.Q
*344 mem_left_track_33\.DFFR_2_\.Q
*345 mem_left_track_33\.DFFR_3_\.Q
*346 mem_left_track_33\.DFFR_4_\.Q
*347 mem_left_track_9\.DFFR_0_\.Q
*348 mem_left_track_9\.DFFR_1_\.Q
*349 mem_left_track_9\.DFFR_2_\.Q
*350 mem_left_track_9\.DFFR_3_\.Q
*351 mem_left_track_9\.DFFR_4_\.Q
*352 mem_right_track_0\.DFFR_0_\.Q
*353 mem_right_track_0\.DFFR_1_\.Q
*354 mem_right_track_0\.DFFR_2_\.Q
*355 mem_right_track_0\.DFFR_3_\.Q
*356 mem_right_track_0\.DFFR_4_\.Q
*357 mem_right_track_0\.DFFR_5_\.Q
*358 mem_right_track_0\.DFFR_6_\.Q
*359 mem_right_track_0\.DFFR_7_\.Q
*360 mem_right_track_16\.DFFR_0_\.D
*361 mem_right_track_16\.DFFR_0_\.Q
*362 mem_right_track_16\.DFFR_1_\.Q
*363 mem_right_track_16\.DFFR_2_\.Q
*364 mem_right_track_16\.DFFR_3_\.Q
*365 mem_right_track_16\.DFFR_4_\.Q
*366 mem_right_track_16\.DFFR_5_\.Q
*367 mem_right_track_24\.DFFR_0_\.Q
*368 mem_right_track_24\.DFFR_1_\.Q
*369 mem_right_track_24\.DFFR_2_\.Q
*370 mem_right_track_24\.DFFR_3_\.Q
*371 mem_right_track_24\.DFFR_4_\.Q
*372 mem_right_track_24\.DFFR_5_\.Q
*373 mem_right_track_32\.DFFR_0_\.Q
*374 mem_right_track_32\.DFFR_1_\.Q
*375 mem_right_track_32\.DFFR_2_\.Q
*376 mem_right_track_32\.DFFR_3_\.Q
*377 mem_right_track_32\.DFFR_4_\.Q
*378 mem_right_track_8\.DFFR_0_\.Q
*379 mem_right_track_8\.DFFR_1_\.Q
*380 mem_right_track_8\.DFFR_2_\.Q
*381 mem_right_track_8\.DFFR_3_\.Q
*382 mem_right_track_8\.DFFR_4_\.Q
*383 net1
*384 net10
*385 net100
*386 net101
*387 net102
*388 net103
*389 net104
*390 net105
*391 net106
*392 net107
*393 net108
*394 net109
*395 net11
*396 net110
*397 net111
*398 net112
*399 net113
*400 net114
*401 net115
*402 net116
*403 net117
*404 net118
*405 net119
*406 net12
*407 net120
*408 net121
*409 net122
*410 net123
*411 net124
*412 net125
*413 net126
*414 net127
*415 net128
*416 net129
*417 net13
*418 net130
*419 net131
*420 net132
*421 net133
*422 net134
*423 net135
*424 net136
*425 net137
*426 net138
*427 net139
*428 net14
*429 net140
*430 net141
*431 net142
*432 net143
*433 net144
*434 net145
*435 net146
*436 net147
*437 net148
*438 net149
*439 net15
*440 net150
*441 net151
*442 net152
*443 net153
*444 net154
*445 net155
*446 net156
*447 net157
*448 net158
*449 net159
*450 net16
*451 net160
*452 net161
*453 net162
*454 net163
*455 net164
*456 net165
*457 net166
*458 net167
*459 net168
*460 net169
*461 net17
*462 net170
*463 net171
*464 net172
*465 net173
*466 net174
*467 net175
*468 net176
*469 net177
*470 net178
*471 net179
*472 net18
*473 net180
*474 net181
*475 net182
*476 net183
*477 net184
*478 net185
*479 net186
*480 net187
*481 net188
*482 net189
*483 net19
*484 net190
*485 net191
*486 net192
*487 net193
*488 net194
*489 net195
*490 net196
*491 net197
*492 net198
*493 net199
*494 net2
*495 net20
*496 net200
*497 net201
*498 net202
*499 net203
*500 net204
*501 net205
*502 net206
*503 net207
*504 net21
*505 net22
*506 net23
*507 net24
*508 net25
*509 net26
*510 net27
*511 net28
*512 net29
*513 net3
*514 net30
*515 net31
*516 net32
*517 net33
*518 net34
*519 net35
*520 net36
*521 net37
*522 net38
*523 net39
*524 net4
*525 net40
*526 net41
*527 net42
*528 net43
*529 net44
*530 net45
*531 net46
*532 net47
*533 net48
*534 net49
*535 net5
*536 net50
*537 net51
*538 net52
*539 net53
*540 net54
*541 net55
*542 net56
*543 net57
*544 net58
*545 net59
*546 net6
*547 net60
*548 net61
*549 net62
*550 net63
*551 net64
*552 net65
*553 net66
*554 net67
*555 net68
*556 net69
*557 net7
*558 net70
*559 net71
*560 net72
*561 net73
*562 net8
*563 net9
*564 net99
*565 ANTENNA__123__I
*566 ANTENNA__124__I
*567 ANTENNA__125__I
*568 ANTENNA__126__I
*569 ANTENNA__127__I
*570 ANTENNA__128__I
*571 ANTENNA__129__I
*572 ANTENNA__130__I
*573 ANTENNA__131__I
*574 ANTENNA__132__I
*575 ANTENNA__133__I
*576 ANTENNA__134__I
*577 ANTENNA__145__I
*578 ANTENNA__156__I
*579 ANTENNA__167__I
*580 ANTENNA__178__I
*581 ANTENNA__179__I
*582 ANTENNA__180__I
*583 ANTENNA__181__I
*584 ANTENNA__182__I
*585 ANTENNA__183__I
*586 ANTENNA__184__I
*587 ANTENNA__185__I
*588 ANTENNA__186__I
*589 ANTENNA__187__I
*590 ANTENNA__188__I
*591 ANTENNA__189__I
*592 ANTENNA__200__I
*593 ANTENNA__211__I
*594 ANTENNA__222__I
*595 ANTENNA__284__CLK
*596 ANTENNA__285__CLK
*597 ANTENNA__286__CLK
*598 ANTENNA__295__CLK
*599 ANTENNA__324__CLK
*600 ANTENNA__325__CLK
*601 ANTENNA__326__CLK
*602 ANTENNA__327__CLK
*603 ANTENNA__328__CLK
*604 ANTENNA__330__CLK
*605 ANTENNA__331__CLK
*606 ANTENNA__332__CLK
*607 ANTENNA__333__CLK
*608 ANTENNA__337__CLK
*609 ANTENNA__339__CLK
*610 ANTENNA_clkbuf_0_prog_clk_I
*611 ANTENNA_clkbuf_3_0__f_prog_clk_I
*612 ANTENNA_clkbuf_3_1__f_prog_clk_I
*613 ANTENNA_clkbuf_3_2__f_prog_clk_I
*614 ANTENNA_clkbuf_3_3__f_prog_clk_I
*615 ANTENNA_clkbuf_3_4__f_prog_clk_I
*616 ANTENNA_clkbuf_3_5__f_prog_clk_I
*617 ANTENNA_clkbuf_3_6__f_prog_clk_I
*618 ANTENNA_clkbuf_3_7__f_prog_clk_I
*619 ANTENNA_input10_I
*620 ANTENNA_input11_I
*621 ANTENNA_input12_I
*622 ANTENNA_input13_I
*623 ANTENNA_input14_I
*624 ANTENNA_input15_I
*625 ANTENNA_input16_I
*626 ANTENNA_input17_I
*627 ANTENNA_input18_I
*628 ANTENNA_input19_I
*629 ANTENNA_input1_I
*630 ANTENNA_input20_I
*631 ANTENNA_input21_I
*632 ANTENNA_input22_I
*633 ANTENNA_input23_I
*634 ANTENNA_input24_I
*635 ANTENNA_input25_I
*636 ANTENNA_input26_I
*637 ANTENNA_input27_I
*638 ANTENNA_input28_I
*639 ANTENNA_input29_I
*640 ANTENNA_input2_I
*641 ANTENNA_input30_I
*642 ANTENNA_input31_I
*643 ANTENNA_input32_I
*644 ANTENNA_input33_I
*645 ANTENNA_input34_I
*646 ANTENNA_input35_I
*647 ANTENNA_input36_I
*648 ANTENNA_input37_I
*649 ANTENNA_input3_I
*650 ANTENNA_input4_I
*651 ANTENNA_input5_I
*652 ANTENNA_input6_I
*653 ANTENNA_input7_I
*654 ANTENNA_input8_I
*655 ANTENNA_input9_I
*656 FILLER_0_0_104
*657 FILLER_0_0_138
*658 FILLER_0_0_154
*659 FILLER_0_0_158
*660 FILLER_0_0_172
*661 FILLER_0_0_174
*662 FILLER_0_0_185
*663 FILLER_0_0_193
*664 FILLER_0_0_197
*665 FILLER_0_0_2
*666 FILLER_0_0_216
*667 FILLER_0_0_230
*668 FILLER_0_0_250
*669 FILLER_0_0_258
*670 FILLER_0_0_262
*671 FILLER_0_0_271
*672 FILLER_0_0_284
*673 FILLER_0_0_288
*674 FILLER_0_0_299
*675 FILLER_0_0_303
*676 FILLER_0_0_305
*677 FILLER_0_0_308
*678 FILLER_0_0_326
*679 FILLER_0_0_352
*680 FILLER_0_0_358
*681 FILLER_0_0_36
*682 FILLER_0_0_370
*683 FILLER_0_0_376
*684 FILLER_0_0_70
*685 FILLER_0_10_101
*686 FILLER_0_10_107
*687 FILLER_0_10_171
*688 FILLER_0_10_177
*689 FILLER_0_10_185
*690 FILLER_0_10_189
*691 FILLER_0_10_2
*692 FILLER_0_10_207
*693 FILLER_0_10_223
*694 FILLER_0_10_241
*695 FILLER_0_10_247
*696 FILLER_0_10_279
*697 FILLER_0_10_283
*698 FILLER_0_10_285
*699 FILLER_0_10_302
*700 FILLER_0_10_310
*701 FILLER_0_10_314
*702 FILLER_0_10_317
*703 FILLER_0_10_34
*704 FILLER_0_10_37
*705 FILLER_0_10_381
*706 FILLER_0_10_383
*707 FILLER_0_11_104
*708 FILLER_0_11_112
*709 FILLER_0_11_129
*710 FILLER_0_11_137
*711 FILLER_0_11_139
*712 FILLER_0_11_158
*713 FILLER_0_11_174
*714 FILLER_0_11_182
*715 FILLER_0_11_2
*716 FILLER_0_11_202
*717 FILLER_0_11_212
*718 FILLER_0_11_220
*719 FILLER_0_11_237
*720 FILLER_0_11_245
*721 FILLER_0_11_262
*722 FILLER_0_11_278
*723 FILLER_0_11_282
*724 FILLER_0_11_290
*725 FILLER_0_11_307
*726 FILLER_0_11_339
*727 FILLER_0_11_347
*728 FILLER_0_11_349
*729 FILLER_0_11_352
*730 FILLER_0_11_66
*731 FILLER_0_11_72
*732 FILLER_0_12_107
*733 FILLER_0_12_139
*734 FILLER_0_12_143
*735 FILLER_0_12_161
*736 FILLER_0_12_169
*737 FILLER_0_12_173
*738 FILLER_0_12_177
*739 FILLER_0_12_18
*740 FILLER_0_12_185
*741 FILLER_0_12_2
*742 FILLER_0_12_223
*743 FILLER_0_12_227
*744 FILLER_0_12_243
*745 FILLER_0_12_247
*746 FILLER_0_12_255
*747 FILLER_0_12_272
*748 FILLER_0_12_288
*749 FILLER_0_12_292
*750 FILLER_0_12_309
*751 FILLER_0_12_313
*752 FILLER_0_12_317
*753 FILLER_0_12_325
*754 FILLER_0_12_342
*755 FILLER_0_12_350
*756 FILLER_0_12_367
*757 FILLER_0_12_37
*758 FILLER_0_12_383
*759 FILLER_0_12_69
*760 FILLER_0_12_85
*761 FILLER_0_13_105
*762 FILLER_0_13_113
*763 FILLER_0_13_130
*764 FILLER_0_13_138
*765 FILLER_0_13_142
*766 FILLER_0_13_158
*767 FILLER_0_13_162
*768 FILLER_0_13_195
*769 FILLER_0_13_2
*770 FILLER_0_13_203
*771 FILLER_0_13_207
*772 FILLER_0_13_209
*773 FILLER_0_13_212
*774 FILLER_0_13_228
*775 FILLER_0_13_236
*776 FILLER_0_13_254
*777 FILLER_0_13_262
*778 FILLER_0_13_279
*779 FILLER_0_13_282
*780 FILLER_0_13_290
*781 FILLER_0_13_310
*782 FILLER_0_13_318
*783 FILLER_0_13_335
*784 FILLER_0_13_343
*785 FILLER_0_13_347
*786 FILLER_0_13_349
*787 FILLER_0_13_352
*788 FILLER_0_13_42
*789 FILLER_0_13_50
*790 FILLER_0_13_6
*791 FILLER_0_13_67
*792 FILLER_0_13_69
*793 FILLER_0_13_72
*794 FILLER_0_13_88
*795 FILLER_0_14_107
*796 FILLER_0_14_111
*797 FILLER_0_14_124
*798 FILLER_0_14_141
*799 FILLER_0_14_149
*800 FILLER_0_14_166
*801 FILLER_0_14_174
*802 FILLER_0_14_183
*803 FILLER_0_14_191
*804 FILLER_0_14_2
*805 FILLER_0_14_229
*806 FILLER_0_14_23
*807 FILLER_0_14_233
*808 FILLER_0_14_237
*809 FILLER_0_14_241
*810 FILLER_0_14_247
*811 FILLER_0_14_249
*812 FILLER_0_14_284
*813 FILLER_0_14_292
*814 FILLER_0_14_31
*815 FILLER_0_14_351
*816 FILLER_0_14_359
*817 FILLER_0_14_37
*818 FILLER_0_14_376
*819 FILLER_0_14_39
*820 FILLER_0_14_56
*821 FILLER_0_14_6
*822 FILLER_0_14_88
*823 FILLER_0_15_132
*824 FILLER_0_15_142
*825 FILLER_0_15_144
*826 FILLER_0_15_151
*827 FILLER_0_15_159
*828 FILLER_0_15_2
*829 FILLER_0_15_212
*830 FILLER_0_15_216
*831 FILLER_0_15_229
*832 FILLER_0_15_276
*833 FILLER_0_15_340
*834 FILLER_0_15_348
*835 FILLER_0_15_352
*836 FILLER_0_15_360
*837 FILLER_0_15_377
*838 FILLER_0_15_381
*839 FILLER_0_15_383
*840 FILLER_0_15_40
*841 FILLER_0_15_48
*842 FILLER_0_15_65
*843 FILLER_0_15_69
*844 FILLER_0_15_72
*845 FILLER_0_15_74
*846 FILLER_0_15_81
*847 FILLER_0_15_85
*848 FILLER_0_16_104
*849 FILLER_0_16_107
*850 FILLER_0_16_111
*851 FILLER_0_16_128
*852 FILLER_0_16_136
*853 FILLER_0_16_171
*854 FILLER_0_16_177
*855 FILLER_0_16_181
*856 FILLER_0_16_189
*857 FILLER_0_16_2
*858 FILLER_0_16_224
*859 FILLER_0_16_226
*860 FILLER_0_16_241
*861 FILLER_0_16_26
*862 FILLER_0_16_34
*863 FILLER_0_16_351
*864 FILLER_0_16_359
*865 FILLER_0_16_37
*866 FILLER_0_16_376
*867 FILLER_0_16_39
*868 FILLER_0_16_46
*869 FILLER_0_16_54
*870 FILLER_0_17_142
*871 FILLER_0_17_183
*872 FILLER_0_17_201
*873 FILLER_0_17_209
*874 FILLER_0_17_352
*875 FILLER_0_17_360
*876 FILLER_0_17_383
*877 FILLER_0_18_183
*878 FILLER_0_18_2
*879 FILLER_0_18_221
*880 FILLER_0_18_223
*881 FILLER_0_18_230
*882 FILLER_0_18_26
*883 FILLER_0_18_34
*884 FILLER_0_18_351
*885 FILLER_0_18_359
*886 FILLER_0_18_382
*887 FILLER_0_19_133
*888 FILLER_0_19_142
*889 FILLER_0_19_183
*890 FILLER_0_19_187
*891 FILLER_0_19_191
*892 FILLER_0_19_193
*893 FILLER_0_19_2
*894 FILLER_0_19_212
*895 FILLER_0_19_216
*896 FILLER_0_19_222
*897 FILLER_0_19_276
*898 FILLER_0_19_352
*899 FILLER_0_19_360
*900 FILLER_0_19_377
*901 FILLER_0_19_381
*902 FILLER_0_19_383
*903 FILLER_0_19_40
*904 FILLER_0_19_44
*905 FILLER_0_19_61
*906 FILLER_0_19_69
*907 FILLER_0_19_72
*908 FILLER_0_19_90
*909 FILLER_0_19_98
*910 FILLER_0_1_136
*911 FILLER_0_1_142
*912 FILLER_0_1_150
*913 FILLER_0_1_154
*914 FILLER_0_1_156
*915 FILLER_0_1_159
*916 FILLER_0_1_175
*917 FILLER_0_1_191
*918 FILLER_0_1_199
*919 FILLER_0_1_2
*920 FILLER_0_1_203
*921 FILLER_0_1_206
*922 FILLER_0_1_218
*923 FILLER_0_1_220
*924 FILLER_0_1_227
*925 FILLER_0_1_235
*926 FILLER_0_1_267
*927 FILLER_0_1_271
*928 FILLER_0_1_273
*929 FILLER_0_1_282
*930 FILLER_0_1_289
*931 FILLER_0_1_297
*932 FILLER_0_1_321
*933 FILLER_0_1_337
*934 FILLER_0_1_341
*935 FILLER_0_1_347
*936 FILLER_0_1_349
*937 FILLER_0_1_66
*938 FILLER_0_1_72
*939 FILLER_0_20_103
*940 FILLER_0_20_113
*941 FILLER_0_20_171
*942 FILLER_0_20_183
*943 FILLER_0_20_190
*944 FILLER_0_20_198
*945 FILLER_0_20_233
*946 FILLER_0_20_237
*947 FILLER_0_20_26
*948 FILLER_0_20_34
*949 FILLER_0_20_37
*950 FILLER_0_20_371
*951 FILLER_0_20_379
*952 FILLER_0_20_383
*953 FILLER_0_20_39
*954 FILLER_0_20_8
*955 FILLER_0_20_86
*956 FILLER_0_20_88
*957 FILLER_0_21_10
*958 FILLER_0_21_136
*959 FILLER_0_21_14
*960 FILLER_0_21_2
*961 FILLER_0_21_218
*962 FILLER_0_21_253
*963 FILLER_0_21_257
*964 FILLER_0_21_261
*965 FILLER_0_21_278
*966 FILLER_0_21_282
*967 FILLER_0_21_284
*968 FILLER_0_21_319
*969 FILLER_0_21_323
*970 FILLER_0_21_327
*971 FILLER_0_21_344
*972 FILLER_0_21_348
*973 FILLER_0_21_352
*974 FILLER_0_21_360
*975 FILLER_0_21_377
*976 FILLER_0_21_381
*977 FILLER_0_21_383
*978 FILLER_0_21_56
*979 FILLER_0_22_177
*980 FILLER_0_22_2
*981 FILLER_0_22_221
*982 FILLER_0_22_237
*983 FILLER_0_22_247
*984 FILLER_0_22_251
*985 FILLER_0_22_255
*986 FILLER_0_22_26
*987 FILLER_0_22_272
*988 FILLER_0_22_280
*989 FILLER_0_22_311
*990 FILLER_0_22_323
*991 FILLER_0_22_34
*992 FILLER_0_22_359
*993 FILLER_0_22_363
*994 FILLER_0_22_365
*995 FILLER_0_22_43
*996 FILLER_0_22_51
*997 FILLER_0_23_101
*998 FILLER_0_23_105
*999 FILLER_0_23_142
*1000 FILLER_0_23_150
*1001 FILLER_0_23_201
*1002 FILLER_0_23_209
*1003 FILLER_0_23_252
*1004 FILLER_0_23_256
*1005 FILLER_0_23_260
*1006 FILLER_0_23_277
*1007 FILLER_0_23_279
*1008 FILLER_0_23_288
*1009 FILLER_0_23_292
*1010 FILLER_0_23_345
*1011 FILLER_0_23_349
*1012 FILLER_0_23_352
*1013 FILLER_0_23_360
*1014 FILLER_0_23_383
*1015 FILLER_0_23_72
*1016 FILLER_0_23_74
*1017 FILLER_0_23_97
*1018 FILLER_0_24_107
*1019 FILLER_0_24_127
*1020 FILLER_0_24_131
*1021 FILLER_0_24_135
*1022 FILLER_0_24_170
*1023 FILLER_0_24_172
*1024 FILLER_0_24_2
*1025 FILLER_0_24_227
*1026 FILLER_0_24_235
*1027 FILLER_0_24_244
*1028 FILLER_0_24_247
*1029 FILLER_0_24_26
*1030 FILLER_0_24_288
*1031 FILLER_0_24_292
*1032 FILLER_0_24_296
*1033 FILLER_0_24_313
*1034 FILLER_0_24_34
*1035 FILLER_0_24_351
*1036 FILLER_0_24_355
*1037 FILLER_0_24_357
*1038 FILLER_0_24_382
*1039 FILLER_0_25_142
*1040 FILLER_0_25_160
*1041 FILLER_0_25_168
*1042 FILLER_0_25_18
*1043 FILLER_0_25_2
*1044 FILLER_0_25_203
*1045 FILLER_0_25_226
*1046 FILLER_0_25_352
*1047 FILLER_0_25_36
*1048 FILLER_0_25_360
*1049 FILLER_0_25_383
*1050 FILLER_0_25_44
*1051 FILLER_0_25_61
*1052 FILLER_0_25_69
*1053 FILLER_0_26_113
*1054 FILLER_0_26_115
*1055 FILLER_0_26_132
*1056 FILLER_0_26_136
*1057 FILLER_0_26_138
*1058 FILLER_0_26_177
*1059 FILLER_0_26_181
*1060 FILLER_0_26_198
*1061 FILLER_0_26_2
*1062 FILLER_0_26_202
*1063 FILLER_0_26_204
*1064 FILLER_0_26_241
*1065 FILLER_0_26_26
*1066 FILLER_0_26_323
*1067 FILLER_0_26_327
*1068 FILLER_0_26_34
*1069 FILLER_0_26_368
*1070 FILLER_0_26_37
*1071 FILLER_0_26_380
*1072 FILLER_0_26_41
*1073 FILLER_0_26_43
*1074 FILLER_0_26_84
*1075 FILLER_0_27_156
*1076 FILLER_0_27_2
*1077 FILLER_0_27_203
*1078 FILLER_0_27_207
*1079 FILLER_0_27_209
*1080 FILLER_0_27_212
*1081 FILLER_0_27_220
*1082 FILLER_0_27_258
*1083 FILLER_0_27_262
*1084 FILLER_0_27_264
*1085 FILLER_0_27_273
*1086 FILLER_0_27_282
*1087 FILLER_0_27_284
*1088 FILLER_0_27_347
*1089 FILLER_0_27_349
*1090 FILLER_0_27_352
*1091 FILLER_0_27_360
*1092 FILLER_0_27_377
*1093 FILLER_0_27_381
*1094 FILLER_0_27_383
*1095 FILLER_0_27_40
*1096 FILLER_0_27_44
*1097 FILLER_0_27_61
*1098 FILLER_0_27_69
*1099 FILLER_0_28_123
*1100 FILLER_0_28_125
*1101 FILLER_0_28_128
*1102 FILLER_0_28_166
*1103 FILLER_0_28_173
*1104 FILLER_0_28_177
*1105 FILLER_0_28_185
*1106 FILLER_0_28_189
*1107 FILLER_0_28_2
*1108 FILLER_0_28_207
*1109 FILLER_0_28_215
*1110 FILLER_0_28_232
*1111 FILLER_0_28_240
*1112 FILLER_0_28_244
*1113 FILLER_0_28_247
*1114 FILLER_0_28_255
*1115 FILLER_0_28_26
*1116 FILLER_0_28_272
*1117 FILLER_0_28_274
*1118 FILLER_0_28_277
*1119 FILLER_0_28_30
*1120 FILLER_0_28_311
*1121 FILLER_0_28_34
*1122 FILLER_0_28_357
*1123 FILLER_0_28_365
*1124 FILLER_0_28_382
*1125 FILLER_0_29_198
*1126 FILLER_0_29_2
*1127 FILLER_0_29_202
*1128 FILLER_0_29_212
*1129 FILLER_0_29_220
*1130 FILLER_0_29_224
*1131 FILLER_0_29_226
*1132 FILLER_0_29_279
*1133 FILLER_0_29_282
*1134 FILLER_0_29_324
*1135 FILLER_0_29_332
*1136 FILLER_0_29_349
*1137 FILLER_0_29_352
*1138 FILLER_0_29_360
*1139 FILLER_0_29_383
*1140 FILLER_0_29_57
*1141 FILLER_0_29_6
*1142 FILLER_0_29_61
*1143 FILLER_0_29_8
*1144 FILLER_0_2_101
*1145 FILLER_0_2_107
*1146 FILLER_0_2_171
*1147 FILLER_0_2_177
*1148 FILLER_0_2_2
*1149 FILLER_0_2_209
*1150 FILLER_0_2_216
*1151 FILLER_0_2_232
*1152 FILLER_0_2_240
*1153 FILLER_0_2_244
*1154 FILLER_0_2_247
*1155 FILLER_0_2_263
*1156 FILLER_0_2_277
*1157 FILLER_0_2_281
*1158 FILLER_0_2_283
*1159 FILLER_0_2_290
*1160 FILLER_0_2_306
*1161 FILLER_0_2_309
*1162 FILLER_0_2_317
*1163 FILLER_0_2_34
*1164 FILLER_0_2_343
*1165 FILLER_0_2_347
*1166 FILLER_0_2_349
*1167 FILLER_0_2_352
*1168 FILLER_0_2_356
*1169 FILLER_0_2_37
*1170 FILLER_0_2_381
*1171 FILLER_0_2_383
*1172 FILLER_0_30_107
*1173 FILLER_0_30_109
*1174 FILLER_0_30_122
*1175 FILLER_0_30_168
*1176 FILLER_0_30_177
*1177 FILLER_0_30_2
*1178 FILLER_0_30_239
*1179 FILLER_0_30_243
*1180 FILLER_0_30_247
*1181 FILLER_0_30_254
*1182 FILLER_0_30_258
*1183 FILLER_0_30_26
*1184 FILLER_0_30_294
*1185 FILLER_0_30_310
*1186 FILLER_0_30_314
*1187 FILLER_0_30_34
*1188 FILLER_0_30_351
*1189 FILLER_0_30_359
*1190 FILLER_0_30_382
*1191 FILLER_0_30_6
*1192 FILLER_0_31_125
*1193 FILLER_0_31_129
*1194 FILLER_0_31_133
*1195 FILLER_0_31_142
*1196 FILLER_0_31_144
*1197 FILLER_0_31_167
*1198 FILLER_0_31_171
*1199 FILLER_0_31_173
*1200 FILLER_0_31_352
*1201 FILLER_0_31_360
*1202 FILLER_0_31_377
*1203 FILLER_0_31_381
*1204 FILLER_0_31_383
*1205 FILLER_0_31_42
*1206 FILLER_0_31_44
*1207 FILLER_0_31_61
*1208 FILLER_0_31_69
*1209 FILLER_0_31_78
*1210 FILLER_0_31_88
*1211 FILLER_0_31_90
*1212 FILLER_0_32_100
*1213 FILLER_0_32_104
*1214 FILLER_0_32_107
*1215 FILLER_0_32_124
*1216 FILLER_0_32_132
*1217 FILLER_0_32_167
*1218 FILLER_0_32_177
*1219 FILLER_0_32_18
*1220 FILLER_0_32_185
*1221 FILLER_0_32_2
*1222 FILLER_0_32_242
*1223 FILLER_0_32_244
*1224 FILLER_0_32_26
*1225 FILLER_0_32_28
*1226 FILLER_0_32_351
*1227 FILLER_0_32_359
*1228 FILLER_0_32_37
*1229 FILLER_0_32_376
*1230 FILLER_0_32_41
*1231 FILLER_0_32_45
*1232 FILLER_0_32_52
*1233 FILLER_0_32_56
*1234 FILLER_0_32_92
*1235 FILLER_0_33_115
*1236 FILLER_0_33_123
*1237 FILLER_0_33_218
*1238 FILLER_0_33_256
*1239 FILLER_0_33_264
*1240 FILLER_0_33_274
*1241 FILLER_0_33_278
*1242 FILLER_0_33_282
*1243 FILLER_0_33_290
*1244 FILLER_0_33_307
*1245 FILLER_0_33_315
*1246 FILLER_0_33_332
*1247 FILLER_0_33_348
*1248 FILLER_0_33_352
*1249 FILLER_0_33_36
*1250 FILLER_0_33_52
*1251 FILLER_0_33_72
*1252 FILLER_0_33_88
*1253 FILLER_0_33_96
*1254 FILLER_0_33_98
*1255 FILLER_0_34_102
*1256 FILLER_0_34_104
*1257 FILLER_0_34_107
*1258 FILLER_0_34_149
*1259 FILLER_0_34_157
*1260 FILLER_0_34_174
*1261 FILLER_0_34_183
*1262 FILLER_0_34_191
*1263 FILLER_0_34_2
*1264 FILLER_0_34_209
*1265 FILLER_0_34_217
*1266 FILLER_0_34_240
*1267 FILLER_0_34_244
*1268 FILLER_0_34_253
*1269 FILLER_0_34_261
*1270 FILLER_0_34_263
*1271 FILLER_0_34_280
*1272 FILLER_0_34_288
*1273 FILLER_0_34_311
*1274 FILLER_0_34_317
*1275 FILLER_0_34_325
*1276 FILLER_0_34_34
*1277 FILLER_0_34_342
*1278 FILLER_0_34_37
*1279 FILLER_0_34_374
*1280 FILLER_0_34_382
*1281 FILLER_0_34_45
*1282 FILLER_0_34_62
*1283 FILLER_0_34_70
*1284 FILLER_0_34_90
*1285 FILLER_0_34_98
*1286 FILLER_0_35_100
*1287 FILLER_0_35_117
*1288 FILLER_0_35_133
*1289 FILLER_0_35_137
*1290 FILLER_0_35_139
*1291 FILLER_0_35_142
*1292 FILLER_0_35_158
*1293 FILLER_0_35_162
*1294 FILLER_0_35_197
*1295 FILLER_0_35_2
*1296 FILLER_0_35_205
*1297 FILLER_0_35_209
*1298 FILLER_0_35_212
*1299 FILLER_0_35_228
*1300 FILLER_0_35_232
*1301 FILLER_0_35_250
*1302 FILLER_0_35_258
*1303 FILLER_0_35_275
*1304 FILLER_0_35_279
*1305 FILLER_0_35_282
*1306 FILLER_0_35_290
*1307 FILLER_0_35_294
*1308 FILLER_0_35_311
*1309 FILLER_0_35_343
*1310 FILLER_0_35_347
*1311 FILLER_0_35_349
*1312 FILLER_0_35_352
*1313 FILLER_0_35_360
*1314 FILLER_0_35_364
*1315 FILLER_0_35_371
*1316 FILLER_0_35_375
*1317 FILLER_0_35_66
*1318 FILLER_0_35_72
*1319 FILLER_0_35_88
*1320 FILLER_0_35_96
*1321 FILLER_0_36_107
*1322 FILLER_0_36_139
*1323 FILLER_0_36_157
*1324 FILLER_0_36_173
*1325 FILLER_0_36_177
*1326 FILLER_0_36_185
*1327 FILLER_0_36_2
*1328 FILLER_0_36_202
*1329 FILLER_0_36_234
*1330 FILLER_0_36_242
*1331 FILLER_0_36_244
*1332 FILLER_0_36_247
*1333 FILLER_0_36_311
*1334 FILLER_0_36_317
*1335 FILLER_0_36_34
*1336 FILLER_0_36_349
*1337 FILLER_0_36_365
*1338 FILLER_0_36_369
*1339 FILLER_0_36_37
*1340 FILLER_0_36_69
*1341 FILLER_0_36_85
*1342 FILLER_0_37_136
*1343 FILLER_0_37_142
*1344 FILLER_0_37_2
*1345 FILLER_0_37_206
*1346 FILLER_0_37_212
*1347 FILLER_0_37_276
*1348 FILLER_0_37_282
*1349 FILLER_0_37_346
*1350 FILLER_0_37_352
*1351 FILLER_0_37_66
*1352 FILLER_0_37_72
*1353 FILLER_0_38_101
*1354 FILLER_0_38_107
*1355 FILLER_0_38_171
*1356 FILLER_0_38_177
*1357 FILLER_0_38_2
*1358 FILLER_0_38_241
*1359 FILLER_0_38_247
*1360 FILLER_0_38_311
*1361 FILLER_0_38_317
*1362 FILLER_0_38_34
*1363 FILLER_0_38_37
*1364 FILLER_0_38_381
*1365 FILLER_0_38_383
*1366 FILLER_0_39_136
*1367 FILLER_0_39_142
*1368 FILLER_0_39_2
*1369 FILLER_0_39_206
*1370 FILLER_0_39_212
*1371 FILLER_0_39_276
*1372 FILLER_0_39_282
*1373 FILLER_0_39_346
*1374 FILLER_0_39_352
*1375 FILLER_0_39_66
*1376 FILLER_0_39_72
*1377 FILLER_0_3_136
*1378 FILLER_0_3_142
*1379 FILLER_0_3_2
*1380 FILLER_0_3_206
*1381 FILLER_0_3_212
*1382 FILLER_0_3_276
*1383 FILLER_0_3_282
*1384 FILLER_0_3_346
*1385 FILLER_0_3_352
*1386 FILLER_0_3_360
*1387 FILLER_0_3_366
*1388 FILLER_0_3_66
*1389 FILLER_0_3_72
*1390 FILLER_0_40_101
*1391 FILLER_0_40_107
*1392 FILLER_0_40_171
*1393 FILLER_0_40_177
*1394 FILLER_0_40_2
*1395 FILLER_0_40_241
*1396 FILLER_0_40_247
*1397 FILLER_0_40_311
*1398 FILLER_0_40_317
*1399 FILLER_0_40_34
*1400 FILLER_0_40_37
*1401 FILLER_0_40_381
*1402 FILLER_0_40_383
*1403 FILLER_0_41_136
*1404 FILLER_0_41_142
*1405 FILLER_0_41_158
*1406 FILLER_0_41_166
*1407 FILLER_0_41_168
*1408 FILLER_0_41_175
*1409 FILLER_0_41_183
*1410 FILLER_0_41_199
*1411 FILLER_0_41_2
*1412 FILLER_0_41_201
*1413 FILLER_0_41_208
*1414 FILLER_0_41_212
*1415 FILLER_0_41_226
*1416 FILLER_0_41_258
*1417 FILLER_0_41_274
*1418 FILLER_0_41_278
*1419 FILLER_0_41_282
*1420 FILLER_0_41_346
*1421 FILLER_0_41_352
*1422 FILLER_0_41_368
*1423 FILLER_0_41_376
*1424 FILLER_0_41_66
*1425 FILLER_0_41_72
*1426 FILLER_0_42_101
*1427 FILLER_0_42_107
*1428 FILLER_0_42_171
*1429 FILLER_0_42_177
*1430 FILLER_0_42_2