*SPEF "ieee 1481-1999"
*DESIGN "sb_2__1_"
*DATE "11:11:11 Fri 11 11, 1111"
*VENDOR "OpenRCX"
*PROGRAM "Parallel Extraction"
*VERSION "1.0"
*DESIGN_FLOW "NAME_SCOPE LOCAL" "PIN_CAP NONE"
*DIVIDER /
*DELIMITER :
*BUS_DELIMITER []
*T_UNIT 1 NS
*C_UNIT 1 PF
*R_UNIT 1 OHM
*L_UNIT 1 HENRY

*NAME_MAP
*1 bottom_left_grid_right_width_0_height_0_subtile_0__pin_O_1_
*2 bottom_left_grid_right_width_0_height_0_subtile_0__pin_O_5_
*3 bottom_right_grid_left_width_0_height_0_subtile_0__pin_inpad_0_
*4 bottom_right_grid_left_width_0_height_0_subtile_1__pin_inpad_0_
*5 bottom_right_grid_left_width_0_height_0_subtile_2__pin_inpad_0_
*6 bottom_right_grid_left_width_0_height_0_subtile_3__pin_inpad_0_
*7 ccff_head
*8 ccff_tail
*9 chanx_left_in[0]
*10 chanx_left_in[10]
*11 chanx_left_in[11]
*12 chanx_left_in[12]
*13 chanx_left_in[13]
*14 chanx_left_in[14]
*15 chanx_left_in[15]
*16 chanx_left_in[16]
*17 chanx_left_in[17]
*18 chanx_left_in[18]
*19 chanx_left_in[19]
*20 chanx_left_in[1]
*21 chanx_left_in[2]
*22 chanx_left_in[3]
*23 chanx_left_in[4]
*24 chanx_left_in[5]
*25 chanx_left_in[6]
*26 chanx_left_in[7]
*27 chanx_left_in[8]
*28 chanx_left_in[9]
*29 net97
*30 net87
*31 net86
*32 net85
*33 net84
*34 net83
*35 net82
*36 chanx_left_out[16]
*37 chanx_left_out[17]
*38 chanx_left_out[18]
*39 chanx_left_out[19]
*40 net96
*41 net95
*42 net94
*43 net93
*44 net92
*45 net91
*46 net90
*47 net89
*48 net88
*49 chany_bottom_in[0]
*50 chany_bottom_in[10]
*51 chany_bottom_in[11]
*52 chany_bottom_in[12]
*53 chany_bottom_in[13]
*54 chany_bottom_in[14]
*55 chany_bottom_in[15]
*56 chany_bottom_in[16]
*57 chany_bottom_in[17]
*58 chany_bottom_in[18]
*59 chany_bottom_in[19]
*60 chany_bottom_in[1]
*61 chany_bottom_in[2]
*62 chany_bottom_in[3]
*63 chany_bottom_in[4]
*64 chany_bottom_in[5]
*65 chany_bottom_in[6]
*66 chany_bottom_in[7]
*67 chany_bottom_in[8]
*68 chany_bottom_in[9]
*69 net81
*70 chany_bottom_out[10]
*71 chany_bottom_out[11]
*72 net78
*73 chany_bottom_out[13]
*74 chany_bottom_out[14]
*75 chany_bottom_out[15]
*76 net77
*77 chany_bottom_out[17]
*78 chany_bottom_out[18]
*79 chany_bottom_out[19]
*80 chany_bottom_out[1]
*81 chany_bottom_out[2]
*82 chany_bottom_out[3]
*83 net80
*84 chany_bottom_out[5]
*85 chany_bottom_out[6]
*86 chany_bottom_out[7]
*87 net79
*88 chany_bottom_out[9]
*89 chany_top_in[0]
*90 chany_top_in[10]
*91 chany_top_in[11]
*92 chany_top_in[12]
*93 chany_top_in[13]
*94 chany_top_in[14]
*95 chany_top_in[15]
*96 chany_top_in[16]
*97 chany_top_in[17]
*98 chany_top_in[18]
*99 chany_top_in[19]
*100 chany_top_in[1]
*101 chany_top_in[2]
*102 chany_top_in[3]
*103 chany_top_in[4]
*104 chany_top_in[5]
*105 chany_top_in[6]
*106 chany_top_in[7]
*107 chany_top_in[8]
*108 chany_top_in[9]
*109 net76
*110 chany_top_out[10]
*111 chany_top_out[11]
*112 net73
*113 chany_top_out[13]
*114 chany_top_out[14]
*115 chany_top_out[15]
*116 net72
*117 chany_top_out[17]
*118 chany_top_out[18]
*119 chany_top_out[19]
*120 chany_top_out[1]
*121 chany_top_out[2]
*122 chany_top_out[3]
*123 net75
*124 chany_top_out[5]
*125 chany_top_out[6]
*126 chany_top_out[7]
*127 net74
*128 chany_top_out[9]
*129 left_bottom_grid_top_width_0_height_0_subtile_0__pin_O_0_
*130 left_bottom_grid_top_width_0_height_0_subtile_0__pin_O_4_
*131 left_top_grid_bottom_width_0_height_0_subtile_0__pin_O_2_
*132 left_top_grid_bottom_width_0_height_0_subtile_0__pin_O_6_
*133 pReset
*134 prog_clk
*135 top_left_grid_right_width_0_height_0_subtile_0__pin_O_1_
*136 top_left_grid_right_width_0_height_0_subtile_0__pin_O_5_
*137 top_right_grid_left_width_0_height_0_subtile_0__pin_inpad_0_
*138 top_right_grid_left_width_0_height_0_subtile_1__pin_inpad_0_
*139 top_right_grid_left_width_0_height_0_subtile_2__pin_inpad_0_
*140 top_right_grid_left_width_0_height_0_subtile_3__pin_inpad_0_
*143 _000_
*144 _001_
*145 _002_
*146 _003_
*147 _004_
*148 _005_
*149 _006_
*150 _007_
*151 _008_
*152 _009_
*153 _010_
*154 _011_
*155 _012_
*156 _013_
*157 _014_
*158 _015_
*159 _016_
*160 _017_
*161 _018_
*162 _019_
*163 _020_
*164 _021_
*165 _022_
*166 _023_
*167 _024_
*168 _025_
*169 _026_
*170 _027_
*171 _028_
*172 _029_
*173 _030_
*174 _031_
*175 _032_
*176 _033_
*177 _034_
*178 _035_
*179 _036_
*180 _037_
*181 _038_
*182 _039_
*183 _040_
*184 _041_
*185 _042_
*186 _043_
*187 _044_
*188 _045_
*189 _046_
*190 _047_
*191 _048_
*192 _049_
*193 _050_
*194 _051_
*195 _052_
*196 _053_
*197 _054_
*198 _055_
*199 _056_
*200 _057_
*201 _058_
*202 _059_
*203 _060_
*204 _061_
*205 _062_
*206 _063_
*207 _064_
*208 _065_
*209 _066_
*210 _067_
*211 _068_
*212 _069_
*213 _070_
*214 _071_
*215 _072_
*216 _073_
*217 _074_
*218 _075_
*219 _076_
*220 _077_
*221 _078_
*222 _079_
*223 _080_
*224 _081_
*225 _082_
*226 _083_
*227 _084_
*228 _085_
*229 _086_
*230 _087_
*231 _088_
*232 _089_
*233 _090_
*234 _091_
*235 _092_
*236 _093_
*237 _094_
*238 _095_
*239 _096_
*240 _097_
*241 _098_
*242 _099_
*243 _100_
*244 _101_
*245 _102_
*246 _103_
*247 _104_
*248 _105_
*249 _106_
*250 _107_
*251 _108_
*252 _109_
*253 _110_
*254 _111_
*255 _112_
*256 _113_
*257 _114_
*258 _115_
*259 _116_
*260 _117_
*261 _118_
*262 _119_
*263 _120_
*264 _121_
*265 clknet_0_prog_clk
*266 clknet_3_0__leaf_prog_clk
*267 clknet_3_1__leaf_prog_clk
*268 clknet_3_2__leaf_prog_clk
*269 clknet_3_3__leaf_prog_clk
*270 clknet_3_4__leaf_prog_clk
*271 clknet_3_5__leaf_prog_clk
*272 clknet_3_6__leaf_prog_clk
*273 clknet_3_7__leaf_prog_clk
*274 mem_bottom_track_1\.DFFR_0_\.D
*275 mem_bottom_track_1\.DFFR_0_\.Q
*276 mem_bottom_track_1\.DFFR_1_\.Q
*277 mem_bottom_track_1\.DFFR_2_\.Q
*278 mem_bottom_track_1\.DFFR_3_\.Q
*279 mem_bottom_track_1\.DFFR_4_\.Q
*280 mem_bottom_track_1\.DFFR_5_\.Q
*281 mem_bottom_track_1\.DFFR_6_\.Q
*282 mem_bottom_track_1\.DFFR_7_\.Q
*283 mem_bottom_track_17\.DFFR_0_\.D
*284 mem_bottom_track_17\.DFFR_0_\.Q
*285 mem_bottom_track_17\.DFFR_1_\.Q
*286 mem_bottom_track_17\.DFFR_2_\.Q
*287 mem_bottom_track_17\.DFFR_3_\.Q
*288 mem_bottom_track_17\.DFFR_4_\.Q
*289 mem_bottom_track_17\.DFFR_5_\.Q
*290 mem_bottom_track_25\.DFFR_0_\.Q
*291 mem_bottom_track_25\.DFFR_1_\.Q
*292 mem_bottom_track_25\.DFFR_2_\.Q
*293 mem_bottom_track_25\.DFFR_3_\.Q
*294 mem_bottom_track_25\.DFFR_4_\.Q
*295 mem_bottom_track_25\.DFFR_5_\.Q
*296 mem_bottom_track_33\.DFFR_0_\.Q
*297 mem_bottom_track_33\.DFFR_1_\.Q
*298 mem_bottom_track_33\.DFFR_2_\.Q
*299 mem_bottom_track_33\.DFFR_3_\.Q
*300 mem_bottom_track_33\.DFFR_4_\.Q
*301 mem_bottom_track_33\.DFFR_5_\.Q
*302 mem_bottom_track_9\.DFFR_0_\.Q
*303 mem_bottom_track_9\.DFFR_1_\.Q
*304 mem_bottom_track_9\.DFFR_2_\.Q
*305 mem_bottom_track_9\.DFFR_3_\.Q
*306 mem_bottom_track_9\.DFFR_4_\.Q
*307 mem_left_track_1\.DFFR_0_\.Q
*308 mem_left_track_1\.DFFR_1_\.Q
*309 mem_left_track_1\.DFFR_2_\.Q
*310 mem_left_track_1\.DFFR_3_\.Q
*311 mem_left_track_1\.DFFR_4_\.Q
*312 mem_left_track_1\.DFFR_5_\.Q
*313 mem_left_track_11\.DFFR_0_\.D
*314 mem_left_track_11\.DFFR_0_\.Q
*315 mem_left_track_11\.DFFR_1_\.Q
*316 mem_left_track_13\.DFFR_0_\.Q
*317 mem_left_track_13\.DFFR_1_\.Q
*318 mem_left_track_15\.DFFR_0_\.Q
*319 mem_left_track_15\.DFFR_1_\.Q
*320 mem_left_track_17\.DFFR_0_\.Q
*321 mem_left_track_17\.DFFR_1_\.Q
*322 mem_left_track_19\.DFFR_0_\.Q
*323 mem_left_track_19\.DFFR_1_\.Q
*324 mem_left_track_21\.DFFR_0_\.Q
*325 mem_left_track_21\.DFFR_1_\.Q
*326 mem_left_track_23\.DFFR_0_\.Q
*327 mem_left_track_23\.DFFR_1_\.Q
*328 mem_left_track_25\.DFFR_0_\.Q
*329 mem_left_track_25\.DFFR_1_\.Q
*330 mem_left_track_27\.DFFR_0_\.Q
*331 mem_left_track_27\.DFFR_1_\.Q
*332 mem_left_track_29\.DFFR_0_\.Q
*333 mem_left_track_3\.DFFR_0_\.Q
*334 mem_left_track_3\.DFFR_1_\.Q
*335 mem_left_track_3\.DFFR_2_\.Q
*336 mem_left_track_3\.DFFR_3_\.Q
*337 mem_left_track_3\.DFFR_4_\.Q
*338 mem_left_track_3\.DFFR_5_\.Q
*339 mem_left_track_5\.DFFR_0_\.Q
*340 mem_left_track_5\.DFFR_1_\.Q
*341 mem_left_track_5\.DFFR_2_\.Q
*342 mem_left_track_5\.DFFR_3_\.Q
*343 mem_left_track_5\.DFFR_4_\.Q
*344 mem_left_track_5\.DFFR_5_\.Q
*345 mem_left_track_7\.DFFR_0_\.Q
*346 mem_left_track_7\.DFFR_1_\.Q
*347 mem_left_track_7\.DFFR_2_\.Q
*348 mem_left_track_7\.DFFR_3_\.Q
*349 mem_left_track_7\.DFFR_4_\.Q
*350 mem_left_track_7\.DFFR_5_\.Q
*351 mem_left_track_9\.DFFR_0_\.Q
*352 mem_top_track_0\.DFFR_0_\.Q
*353 mem_top_track_0\.DFFR_1_\.Q
*354 mem_top_track_0\.DFFR_2_\.Q
*355 mem_top_track_0\.DFFR_3_\.Q
*356 mem_top_track_0\.DFFR_4_\.Q
*357 mem_top_track_0\.DFFR_5_\.Q
*358 mem_top_track_0\.DFFR_6_\.Q
*359 mem_top_track_0\.DFFR_7_\.Q
*360 mem_top_track_16\.DFFR_0_\.D
*361 mem_top_track_16\.DFFR_0_\.Q
*362 mem_top_track_16\.DFFR_1_\.Q
*363 mem_top_track_16\.DFFR_2_\.Q
*364 mem_top_track_16\.DFFR_3_\.Q
*365 mem_top_track_16\.DFFR_4_\.Q
*366 mem_top_track_16\.DFFR_5_\.Q
*367 mem_top_track_24\.DFFR_0_\.Q
*368 mem_top_track_24\.DFFR_1_\.Q
*369 mem_top_track_24\.DFFR_2_\.Q
*370 mem_top_track_24\.DFFR_3_\.Q
*371 mem_top_track_24\.DFFR_4_\.Q
*372 mem_top_track_24\.DFFR_5_\.Q
*373 mem_top_track_32\.DFFR_0_\.Q
*374 mem_top_track_32\.DFFR_1_\.Q
*375 mem_top_track_32\.DFFR_2_\.Q
*376 mem_top_track_32\.DFFR_3_\.Q
*377 mem_top_track_32\.DFFR_4_\.Q
*378 mem_top_track_8\.DFFR_0_\.Q
*379 mem_top_track_8\.DFFR_1_\.Q
*380 mem_top_track_8\.DFFR_2_\.Q
*381 mem_top_track_8\.DFFR_3_\.Q
*382 mem_top_track_8\.DFFR_4_\.Q
*383 net1
*384 net10
*385 net100
*386 net101
*387 net102
*388 net103
*389 net104
*390 net105
*391 net106
*392 net107
*393 net108
*394 net109
*395 net11
*396 net110
*397 net111
*398 net112
*399 net113
*400 net114
*401 net115
*402 net116
*403 net117
*404 net118
*405 net119
*406 net12
*407 net120
*408 net121
*409 net122
*410 net123
*411 net124
*412 net125
*413 net126
*414 net127
*415 net128
*416 net129
*417 net13
*418 net130
*419 net131
*420 net132
*421 net133
*422 net134
*423 net135
*424 net136
*425 net137
*426 net138
*427 net139
*428 net14
*429 net140
*430 net141
*431 net142
*432 net143
*433 net144
*434 net145
*435 net146
*436 net147
*437 net148
*438 net149
*439 net15
*440 net150
*441 net151
*442 net152
*443 net153
*444 net154
*445 net155
*446 net156
*447 net157
*448 net158
*449 net159
*450 net16
*451 net160
*452 net161
*453 net162
*454 net163
*455 net164
*456 net165
*457 net166
*458 net167
*459 net168
*460 net169
*461 net17
*462 net170
*463 net171
*464 net172
*465 net173
*466 net174
*467 net175
*468 net176
*469 net177
*470 net178
*471 net179
*472 net18
*473 net180
*474 net181
*475 net182
*476 net183
*477 net184
*478 net185
*479 net186
*480 net187
*481 net188
*482 net189
*483 net19
*484 net190
*485 net191
*486 net192
*487 net193
*488 net194
*489 net195
*490 net196
*491 net197
*492 net198
*493 net199
*494 net2
*495 net20
*496 net200
*497 net201
*498 net202
*499 net203
*500 net204
*501 net205
*502 net206
*503 net21
*504 net22
*505 net23
*506 net24
*507 net25
*508 net26
*509 net27
*510 net28
*511 net29
*512 net3
*513 net30
*514 net31
*515 net32
*516 net33
*517 net34
*518 net35
*519 net36
*520 net37
*521 net38
*522 net39
*523 net4
*524 net40
*525 net41
*526 net42
*527 net43
*528 net44
*529 net45
*530 net46
*531 net47
*532 net48
*533 net49
*534 net5
*535 net50
*536 net51
*537 net52
*538 net53
*539 net54
*540 net55
*541 net56
*542 net57
*543 net58
*544 net59
*545 net6
*546 net60
*547 net61
*548 net62
*549 net63
*550 net64
*551 net65
*552 net66
*553 net67
*554 net68
*555 net69
*556 net7
*557 net70
*558 net71
*559 net8
*560 net9
*561 net98
*562 net99
*563 ANTENNA__123__I
*564 ANTENNA__134__I
*565 ANTENNA__145__I
*566 ANTENNA__156__I
*567 ANTENNA__167__I
*568 ANTENNA__178__I
*569 ANTENNA__189__I
*570 ANTENNA__200__I
*571 ANTENNA__211__I
*572 ANTENNA__222__I
*573 ANTENNA__244__CLK
*574 ANTENNA__245__CLK
*575 ANTENNA__246__CLK
*576 ANTENNA__247__CLK
*577 ANTENNA__248__CLK
*578 ANTENNA__249__CLK
*579 ANTENNA__250__CLK
*580 ANTENNA__251__CLK
*581 ANTENNA__252__CLK
*582 ANTENNA__253__CLK
*583 ANTENNA__254__CLK
*584 ANTENNA__256__CLK
*585 ANTENNA__257__CLK
*586 ANTENNA__258__CLK
*587 ANTENNA__260__CLK
*588 ANTENNA__261__CLK
*589 ANTENNA__262__CLK
*590 ANTENNA__263__CLK
*591 ANTENNA__264__CLK
*592 ANTENNA__265__CLK
*593 ANTENNA__266__CLK
*594 ANTENNA__267__CLK
*595 ANTENNA__269__CLK
*596 ANTENNA__270__CLK
*597 ANTENNA__271__CLK
*598 ANTENNA__272__CLK
*599 ANTENNA__273__CLK
*600 ANTENNA__282__CLK
*601 ANTENNA__286__CLK
*602 ANTENNA__287__CLK
*603 ANTENNA__289__CLK
*604 ANTENNA_clkbuf_0_prog_clk_I
*605 ANTENNA_clkbuf_3_0__f_prog_clk_I
*606 ANTENNA_clkbuf_3_1__f_prog_clk_I
*607 ANTENNA_clkbuf_3_2__f_prog_clk_I
*608 ANTENNA_clkbuf_3_3__f_prog_clk_I
*609 ANTENNA_clkbuf_3_4__f_prog_clk_I
*610 ANTENNA_clkbuf_3_5__f_prog_clk_I
*611 ANTENNA_clkbuf_3_6__f_prog_clk_I
*612 ANTENNA_clkbuf_3_7__f_prog_clk_I
*613 ANTENNA_input10_I
*614 ANTENNA_input11_I
*615 ANTENNA_input12_I
*616 ANTENNA_input13_I
*617 ANTENNA_input14_I
*618 ANTENNA_input15_I
*619 ANTENNA_input16_I
*620 ANTENNA_input17_I
*621 ANTENNA_input18_I
*622 ANTENNA_input19_I
*623 ANTENNA_input1_I
*624 ANTENNA_input20_I
*625 ANTENNA_input21_I
*626 ANTENNA_input22_I
*627 ANTENNA_input23_I
*628 ANTENNA_input24_I
*629 ANTENNA_input25_I
*630 ANTENNA_input26_I
*631 ANTENNA_input27_I
*632 ANTENNA_input28_I
*633 ANTENNA_input29_I
*634 ANTENNA_input2_I
*635 ANTENNA_input30_I
*636 ANTENNA_input31_I
*637 ANTENNA_input32_I
*638 ANTENNA_input33_I
*639 ANTENNA_input34_I
*640 ANTENNA_input35_I
*641 ANTENNA_input36_I
*642 ANTENNA_input3_I
*643 ANTENNA_input4_I
*644 ANTENNA_input5_I
*645 ANTENNA_input6_I
*646 ANTENNA_input7_I
*647 ANTENNA_input8_I
*648 ANTENNA_input9_I
*649 FILLER_0_0_104
*650 FILLER_0_0_138
*651 FILLER_0_0_172
*652 FILLER_0_0_176
*653 FILLER_0_0_178
*654 FILLER_0_0_197
*655 FILLER_0_0_2
*656 FILLER_0_0_201
*657 FILLER_0_0_203
*658 FILLER_0_0_210
*659 FILLER_0_0_218
*660 FILLER_0_0_240
*661 FILLER_0_0_251
*662 FILLER_0_0_265
*663 FILLER_0_0_269
*664 FILLER_0_0_271
*665 FILLER_0_0_280
*666 FILLER_0_0_297
*667 FILLER_0_0_305
*668 FILLER_0_0_318
*669 FILLER_0_0_328
*670 FILLER_0_0_330
*671 FILLER_0_0_36
*672 FILLER_0_0_70
*673 FILLER_0_10_101
*674 FILLER_0_10_107
*675 FILLER_0_10_127
*676 FILLER_0_10_129
*677 FILLER_0_10_132
*678 FILLER_0_10_170
*679 FILLER_0_10_174
*680 FILLER_0_10_177
*681 FILLER_0_10_185
*682 FILLER_0_10_2
*683 FILLER_0_10_202
*684 FILLER_0_10_210
*685 FILLER_0_10_227
*686 FILLER_0_10_243
*687 FILLER_0_10_247
*688 FILLER_0_10_255
*689 FILLER_0_10_257
*690 FILLER_0_10_26
*691 FILLER_0_10_298
*692 FILLER_0_10_300
*693 FILLER_0_10_34
*694 FILLER_0_10_37
*695 FILLER_0_10_41
*696 FILLER_0_10_49
*697 FILLER_0_10_53
*698 FILLER_0_10_94
*699 FILLER_0_11_142
*700 FILLER_0_11_144
*701 FILLER_0_11_151
*702 FILLER_0_11_153
*703 FILLER_0_11_200
*704 FILLER_0_11_202
*705 FILLER_0_11_209
*706 FILLER_0_11_212
*707 FILLER_0_11_222
*708 FILLER_0_11_230
*709 FILLER_0_11_247
*710 FILLER_0_11_255
*711 FILLER_0_11_275
*712 FILLER_0_11_279
*713 FILLER_0_11_282
*714 FILLER_0_11_330
*715 FILLER_0_11_72
*716 FILLER_0_11_74
*717 FILLER_0_11_81
*718 FILLER_0_11_85
*719 FILLER_0_11_87
*720 FILLER_0_12_10
*721 FILLER_0_12_101
*722 FILLER_0_12_177
*723 FILLER_0_12_18
*724 FILLER_0_12_191
*725 FILLER_0_12_2
*726 FILLER_0_12_229
*727 FILLER_0_12_247
*728 FILLER_0_12_251
*729 FILLER_0_12_286
*730 FILLER_0_12_294
*731 FILLER_0_12_311
*732 FILLER_0_12_329
*733 FILLER_0_12_37
*734 FILLER_0_12_51
*735 FILLER_0_12_55
*736 FILLER_0_12_90
*737 FILLER_0_12_94
*738 FILLER_0_13_294
*739 FILLER_0_13_296
*740 FILLER_0_14_10
*741 FILLER_0_14_107
*742 FILLER_0_14_109
*743 FILLER_0_14_160
*744 FILLER_0_14_164
*745 FILLER_0_14_168
*746 FILLER_0_14_172
*747 FILLER_0_14_174
*748 FILLER_0_14_177
*749 FILLER_0_14_18
*750 FILLER_0_14_193
*751 FILLER_0_14_197
*752 FILLER_0_14_2
*753 FILLER_0_14_323
*754 FILLER_0_14_43
*755 FILLER_0_14_45
*756 FILLER_0_14_62
*757 FILLER_0_14_64
*758 FILLER_0_14_67
*759 FILLER_0_15_128
*760 FILLER_0_15_135
*761 FILLER_0_15_139
*762 FILLER_0_15_142
*763 FILLER_0_15_149
*764 FILLER_0_15_184
*765 FILLER_0_15_188
*766 FILLER_0_15_190
*767 FILLER_0_15_209
*768 FILLER_0_15_212
*769 FILLER_0_15_214
*770 FILLER_0_15_265
*771 FILLER_0_15_316
*772 FILLER_0_15_324
*773 FILLER_0_15_328
*774 FILLER_0_15_330
*775 FILLER_0_16_107
*776 FILLER_0_16_111
*777 FILLER_0_16_113
*778 FILLER_0_16_172
*779 FILLER_0_16_174
*780 FILLER_0_16_177
*781 FILLER_0_16_179
*782 FILLER_0_16_186
*783 FILLER_0_16_194
*784 FILLER_0_16_196
*785 FILLER_0_16_231
*786 FILLER_0_16_247
*787 FILLER_0_16_26
*788 FILLER_0_16_30
*789 FILLER_0_16_32
*790 FILLER_0_16_329
*791 FILLER_0_16_43
*792 FILLER_0_16_47
*793 FILLER_0_16_8
*794 FILLER_0_17_121
*795 FILLER_0_17_123
*796 FILLER_0_17_142
*797 FILLER_0_17_144
*798 FILLER_0_17_161
*799 FILLER_0_17_169
*800 FILLER_0_17_2
*801 FILLER_0_17_218
*802 FILLER_0_17_254
*803 FILLER_0_17_258
*804 FILLER_0_17_260
*805 FILLER_0_17_279
*806 FILLER_0_17_288
*807 FILLER_0_17_326
*808 FILLER_0_17_330
*809 FILLER_0_17_4
*810 FILLER_0_17_61
*811 FILLER_0_17_63
*812 FILLER_0_17_66
*813 FILLER_0_17_86
*814 FILLER_0_18_177
*815 FILLER_0_18_179
*816 FILLER_0_18_2
*817 FILLER_0_18_236
*818 FILLER_0_18_244
*819 FILLER_0_18_26
*820 FILLER_0_18_34
*821 FILLER_0_18_6
*822 FILLER_0_19_133
*823 FILLER_0_19_137
*824 FILLER_0_19_139
*825 FILLER_0_19_142
*826 FILLER_0_19_146
*827 FILLER_0_19_150
*828 FILLER_0_19_154
*829 FILLER_0_19_156
*830 FILLER_0_19_2
*831 FILLER_0_19_203
*832 FILLER_0_19_207
*833 FILLER_0_19_209
*834 FILLER_0_19_212
*835 FILLER_0_19_220
*836 FILLER_0_19_256
*837 FILLER_0_19_258
*838 FILLER_0_19_26
*839 FILLER_0_19_275
*840 FILLER_0_19_279
*841 FILLER_0_19_328
*842 FILLER_0_19_330
*843 FILLER_0_19_34
*844 FILLER_0_19_69
*845 FILLER_0_19_72
*846 FILLER_0_19_88
*847 FILLER_0_19_90
*848 FILLER_0_1_136
*849 FILLER_0_1_142
*850 FILLER_0_1_174
*851 FILLER_0_1_190
*852 FILLER_0_1_192
*853 FILLER_0_1_197
*854 FILLER_0_1_2
*855 FILLER_0_1_205
*856 FILLER_0_1_209
*857 FILLER_0_1_212
*858 FILLER_0_1_262
*859 FILLER_0_1_266
*860 FILLER_0_1_292
*861 FILLER_0_1_306
*862 FILLER_0_1_314
*863 FILLER_0_1_66
*864 FILLER_0_1_72
*865 FILLER_0_20_104
*866 FILLER_0_20_141
*867 FILLER_0_20_148
*868 FILLER_0_20_156
*869 FILLER_0_20_158
*870 FILLER_0_20_2
*871 FILLER_0_20_241
*872 FILLER_0_20_26
*873 FILLER_0_20_329
*874 FILLER_0_20_34
*875 FILLER_0_20_43
*876 FILLER_0_20_47
*877 FILLER_0_20_49
*878 FILLER_0_20_84
*879 FILLER_0_21_105
*880 FILLER_0_21_176
*881 FILLER_0_21_183
*882 FILLER_0_21_187
*883 FILLER_0_21_191
*884 FILLER_0_21_193
*885 FILLER_0_21_2
*886 FILLER_0_21_212
*887 FILLER_0_21_254
*888 FILLER_0_21_258
*889 FILLER_0_21_260
*890 FILLER_0_21_279
*891 FILLER_0_21_322
*892 FILLER_0_21_324
*893 FILLER_0_21_64
*894 FILLER_0_21_68
*895 FILLER_0_21_72
*896 FILLER_0_21_80
*897 FILLER_0_21_97
*898 FILLER_0_22_107
*899 FILLER_0_22_123
*900 FILLER_0_22_127
*901 FILLER_0_22_163
*902 FILLER_0_22_171
*903 FILLER_0_22_191
*904 FILLER_0_22_195
*905 FILLER_0_22_2
*906 FILLER_0_22_237
*907 FILLER_0_22_247
*908 FILLER_0_22_26
*909 FILLER_0_22_305
*910 FILLER_0_22_313
*911 FILLER_0_22_317
*912 FILLER_0_22_325
*913 FILLER_0_22_34
*914 FILLER_0_23_142
*915 FILLER_0_23_150
*916 FILLER_0_23_192
*917 FILLER_0_23_200
*918 FILLER_0_23_288
*919 FILLER_0_23_295
*920 FILLER_0_23_330
*921 FILLER_0_23_78
*922 FILLER_0_23_86
*923 FILLER_0_24_107
*924 FILLER_0_24_111
*925 FILLER_0_24_162
*926 FILLER_0_24_166
*927 FILLER_0_24_168
*928 FILLER_0_24_177
*929 FILLER_0_24_179
*930 FILLER_0_24_2
*931 FILLER_0_24_214
*932 FILLER_0_24_218
*933 FILLER_0_24_222
*934 FILLER_0_24_26
*935 FILLER_0_24_261
*936 FILLER_0_24_329
*937 FILLER_0_24_34
*938 FILLER_0_25_10
*939 FILLER_0_25_122
*940 FILLER_0_25_126
*941 FILLER_0_25_134
*942 FILLER_0_25_138
*943 FILLER_0_25_148
*944 FILLER_0_25_156
*945 FILLER_0_25_2
*946 FILLER_0_25_212
*947 FILLER_0_25_214
*948 FILLER_0_25_265
*949 FILLER_0_25_269
*950 FILLER_0_25_277
*951 FILLER_0_25_279
*952 FILLER_0_25_316
*953 FILLER_0_25_324
*954 FILLER_0_25_328
*955 FILLER_0_25_330
*956 FILLER_0_25_60
*957 FILLER_0_25_68
*958 FILLER_0_26_103
*959 FILLER_0_26_113
*960 FILLER_0_26_129
*961 FILLER_0_26_165
*962 FILLER_0_26_172
*963 FILLER_0_26_174
*964 FILLER_0_26_183
*965 FILLER_0_26_191
*966 FILLER_0_26_195
*967 FILLER_0_26_2
*968 FILLER_0_26_236
*969 FILLER_0_26_243
*970 FILLER_0_26_247
*971 FILLER_0_26_255
*972 FILLER_0_26_26
*973 FILLER_0_26_272
*974 FILLER_0_26_280
*975 FILLER_0_26_297
*976 FILLER_0_26_313
*977 FILLER_0_26_323
*978 FILLER_0_26_34
*979 FILLER_0_26_37
*980 FILLER_0_26_60
*981 FILLER_0_26_68
*982 FILLER_0_27_123
*983 FILLER_0_27_139
*984 FILLER_0_27_142
*985 FILLER_0_27_149
*986 FILLER_0_27_187
*987 FILLER_0_27_2
*988 FILLER_0_27_203
*989 FILLER_0_27_207
*990 FILLER_0_27_209
*991 FILLER_0_27_21
*992 FILLER_0_27_264
*993 FILLER_0_27_268
*994 FILLER_0_27_276
*995 FILLER_0_27_282
*996 FILLER_0_27_289
*997 FILLER_0_27_29
*998 FILLER_0_27_330
*999 FILLER_0_27_4
*1000 FILLER_0_27_64
*1001 FILLER_0_27_68
*1002 FILLER_0_27_72
*1003 FILLER_0_27_76
*1004 FILLER_0_28_107
*1005 FILLER_0_28_109
*1006 FILLER_0_28_132
*1007 FILLER_0_28_140
*1008 FILLER_0_28_177
*1009 FILLER_0_28_185
*1010 FILLER_0_28_2
*1011 FILLER_0_28_203
*1012 FILLER_0_28_21
*1013 FILLER_0_28_211
*1014 FILLER_0_28_237
*1015 FILLER_0_28_29
*1016 FILLER_0_28_323
*1017 FILLER_0_28_327
*1018 FILLER_0_28_33
*1019 FILLER_0_28_4
*1020 FILLER_0_29_138
*1021 FILLER_0_29_142
*1022 FILLER_0_29_158
*1023 FILLER_0_29_316
*1024 FILLER_0_29_320
*1025 FILLER_0_29_72
*1026 FILLER_0_29_89
*1027 FILLER_0_29_97
*1028 FILLER_0_2_101
*1029 FILLER_0_2_107
*1030 FILLER_0_2_171
*1031 FILLER_0_2_177
*1032 FILLER_0_2_2
*1033 FILLER_0_2_209
*1034 FILLER_0_2_243
*1035 FILLER_0_2_251
*1036 FILLER_0_2_281
*1037 FILLER_0_2_297
*1038 FILLER_0_2_327
*1039 FILLER_0_2_34
*1040 FILLER_0_2_37
*1041 FILLER_0_30_100
*1042 FILLER_0_30_104
*1043 FILLER_0_30_113
*1044 FILLER_0_30_117
*1045 FILLER_0_30_152
*1046 FILLER_0_30_154
*1047 FILLER_0_30_161
*1048 FILLER_0_30_169
*1049 FILLER_0_30_173
*1050 FILLER_0_30_177
*1051 FILLER_0_30_185
*1052 FILLER_0_30_2
*1053 FILLER_0_30_221
*1054 FILLER_0_30_237
*1055 FILLER_0_30_253
*1056 FILLER_0_30_257
*1057 FILLER_0_30_293
*1058 FILLER_0_30_309
*1059 FILLER_0_30_313
*1060 FILLER_0_30_327
*1061 FILLER_0_30_34
*1062 FILLER_0_30_37
*1063 FILLER_0_30_45
*1064 FILLER_0_30_49
*1065 FILLER_0_31_125
*1066 FILLER_0_31_133
*1067 FILLER_0_31_137
*1068 FILLER_0_31_139
*1069 FILLER_0_31_142
*1070 FILLER_0_31_150
*1071 FILLER_0_31_152
*1072 FILLER_0_31_169
*1073 FILLER_0_31_2
*1074 FILLER_0_31_201
*1075 FILLER_0_31_209
*1076 FILLER_0_31_212
*1077 FILLER_0_31_220
*1078 FILLER_0_31_258
*1079 FILLER_0_31_266
*1080 FILLER_0_31_270
*1081 FILLER_0_31_272
*1082 FILLER_0_31_279
*1083 FILLER_0_31_282
*1084 FILLER_0_31_290
*1085 FILLER_0_31_307
*1086 FILLER_0_31_34
*1087 FILLER_0_31_42
*1088 FILLER_0_31_46
*1089 FILLER_0_31_48
*1090 FILLER_0_31_65
*1091 FILLER_0_31_69
*1092 FILLER_0_31_72
*1093 FILLER_0_31_80
*1094 FILLER_0_31_88
*1095 FILLER_0_31_90
*1096 FILLER_0_32_107
*1097 FILLER_0_32_139
*1098 FILLER_0_32_147
*1099 FILLER_0_32_164
*1100 FILLER_0_32_172
*1101 FILLER_0_32_174
*1102 FILLER_0_32_177
*1103 FILLER_0_32_2
*1104 FILLER_0_32_209
*1105 FILLER_0_32_225
*1106 FILLER_0_32_227
*1107 FILLER_0_32_244
*1108 FILLER_0_32_247
*1109 FILLER_0_32_255
*1110 FILLER_0_32_272
*1111 FILLER_0_32_280
*1112 FILLER_0_32_297
*1113 FILLER_0_32_313
*1114 FILLER_0_32_317
*1115 FILLER_0_32_321
*1116 FILLER_0_32_34
*1117 FILLER_0_32_37
*1118 FILLER_0_32_69
*1119 FILLER_0_32_89
*1120 FILLER_0_33_113
*1121 FILLER_0_33_121
*1122 FILLER_0_33_139
*1123 FILLER_0_33_142
*1124 FILLER_0_33_2
*1125 FILLER_0_33_206
*1126 FILLER_0_33_212
*1127 FILLER_0_33_228
*1128 FILLER_0_33_236
*1129 FILLER_0_33_240
*1130 FILLER_0_33_257
*1131 FILLER_0_33_273
*1132 FILLER_0_33_277
*1133 FILLER_0_33_279
*1134 FILLER_0_33_282
*1135 FILLER_0_33_290
*1136 FILLER_0_33_307
*1137 FILLER_0_33_317
*1138 FILLER_0_33_66
*1139 FILLER_0_33_72
*1140 FILLER_0_33_88
*1141 FILLER_0_33_96
*1142 FILLER_0_34_104
*1143 FILLER_0_34_107
*1144 FILLER_0_34_115
*1145 FILLER_0_34_132
*1146 FILLER_0_34_164
*1147 FILLER_0_34_172
*1148 FILLER_0_34_174
*1149 FILLER_0_34_177
*1150 FILLER_0_34_2
*1151 FILLER_0_34_241
*1152 FILLER_0_34_247
*1153 FILLER_0_34_263
*1154 FILLER_0_34_280
*1155 FILLER_0_34_296
*1156 FILLER_0_34_298
*1157 FILLER_0_34_34
*1158 FILLER_0_34_37
*1159 FILLER_0_34_69
*1160 FILLER_0_34_77
*1161 FILLER_0_34_79
*1162 FILLER_0_34_96
*1163 FILLER_0_35_136
*1164 FILLER_0_35_142
*1165 FILLER_0_35_2
*1166 FILLER_0_35_206
*1167 FILLER_0_35_212
*1168 FILLER_0_35_276
*1169 FILLER_0_35_282
*1170 FILLER_0_35_290
*1171 FILLER_0_35_310
*1172 FILLER_0_35_66
*1173 FILLER_0_35_72
*1174 FILLER_0_36_101
*1175 FILLER_0_36_107
*1176 FILLER_0_36_171
*1177 FILLER_0_36_177
*1178 FILLER_0_36_2
*1179 FILLER_0_36_241
*1180 FILLER_0_36_247
*1181 FILLER_0_36_279
*1182 FILLER_0_36_287
*1183 FILLER_0_36_291
*1184 FILLER_0_36_317
*1185 FILLER_0_36_34
*1186 FILLER_0_36_37
*1187 FILLER_0_37_136
*1188 FILLER_0_37_142
*1189 FILLER_0_37_2
*1190 FILLER_0_37_206
*1191 FILLER_0_37_212
*1192 FILLER_0_37_276
*1193 FILLER_0_37_282
*1194 FILLER_0_37_322
*1195 FILLER_0_37_326
*1196 FILLER_0_37_328
*1197 FILLER_0_37_66
*1198 FILLER_0_37_72
*1199 FILLER_0_38_101
*1200 FILLER_0_38_107
*1201 FILLER_0_38_171
*1202 FILLER_0_38_177
*1203 FILLER_0_38_2
*1204 FILLER_0_38_241
*1205 FILLER_0_38_247
*1206 FILLER_0_38_279
*1207 FILLER_0_38_287
*1208 FILLER_0_38_289
*1209 FILLER_0_38_306
*1210 FILLER_0_38_314
*1211 FILLER_0_38_327
*1212 FILLER_0_38_34
*1213 FILLER_0_38_37
*1214 FILLER_0_39_136
*1215 FILLER_0_39_142
*1216 FILLER_0_39_2
*1217 FILLER_0_39_206
*1218 FILLER_0_39_212
*1219 FILLER_0_39_276
*1220 FILLER_0_39_282
*1221 FILLER_0_39_322
*1222 FILLER_0_39_330
*1223 FILLER_0_39_66
*1224 FILLER_0_39_72
*1225 FILLER_0_3_129
*1226 FILLER_0_3_137
*1227 FILLER_0_3_139
*1228 FILLER_0_3_142
*1229 FILLER_0_3_18
*1230 FILLER_0_3_2
*1231 FILLER_0_3_206
*1232 FILLER_0_3_212
*1233 FILLER_0_3_220
*1234 FILLER_0_3_222
*1235 FILLER_0_3_26
*1236 FILLER_0_3_271
*1237 FILLER_0_3_275
*1238 FILLER_0_3_279
*1239 FILLER_0_3_28
*1240 FILLER_0_3_288
*1241 FILLER_0_3_299
*1242 FILLER_0_3_61
*1243 FILLER_0_3_69
*1244 FILLER_0_3_72
*1245 FILLER_0_3_80
*1246 FILLER_0_3_97
*1247 FILLER_0_40_101
*1248 FILLER_0_40_107
*1249 FILLER_0_40_139
*1250 FILLER_0_40_155
*1251 FILLER_0_40_163
*1252 FILLER_0_40_167
*1253 FILLER_0_40_169
*1254 FILLER_0_40_172
*1255 FILLER_0_40_174
*1256 FILLER_0_40_177
*1257 FILLER_0_40_185
*1258 FILLER_0_40_189
*1259 FILLER_0_40_193
*1260 FILLER_0_40_199
*1261 FILLER_0_40_2
*1262 FILLER_0_40_211
*1263 FILLER_0_40_231
*1264 FILLER_0_40_239
*1265 FILLER_0_40_243
*1266 FILLER_0_40_247
*1267 FILLER_0_40_263
*1268 FILLER_0_40_271
*1269 FILLER_0_40_281
*1270 FILLER_0_40_327
*1271 FILLER_0_40_34
*1272 FILLER_0_40_37
*1273 FILLER_0_41_136
*1274 FILLER_0_41_142
*1275 FILLER_0_41_152
*1276 FILLER_0_41_158
*1277 FILLER_0_41_162
*1278 FILLER_0_41_192
*1279 FILLER_0_41_2
*1280 FILLER_0_41_205
*1281 FILLER_0_41_209
*1282 FILLER_0_41_212
*1283 FILLER_0_41_216
*1284 FILLER_0_41_241
*1285 FILLER_0_41_251
*1286 FILLER_0_41_257
*1287 FILLER_0_41_264
*1288 FILLER_0_41_268
*1289 FILLER_0_41_275
*1290 FILLER_0_41_279
*1291 FILLER_0_41_282
*1292 FILLER_0_41_293
*1293 FILLER_0_41_327
*1294 FILLER_0_41_66
*1295 FILLER_0_41_72
*1296 FILLER_0_42_104
*1297 FILLER_0_42_138
*1298 FILLER_0_42_142
*1299 FILLER_0_42_172
*1300 FILLER_0_42_174
*1301 FILLER_0_42_199
*1302 FILLER_0_42_2
*1303 FILLER_0_42_203
*1304 FILLER_0_42_206
*1305 FILLER_0_42_214
*1306 FILLER_0_42_235
*1307 FILLER_0_42_237
*1308 FILLER_0_42_250
*1309 FILLER_0_42_258
*1310 FILLER_0_42_265
*1311 FILLER_0_42_267
*1312 FILLER_0_42_284
*1313 FILLER_0_42_298
*1314 FILLER_0_42_308
*1315 FILLER_0_42_316
*1316 FILLER_0_42_327
*1317 FILLER_0_42_36
*1318 FILLER_0_42_70
*1319 FILLER_0_4_102
*1320 FILLER_0_4_104
*1321 FILLER_0_4_107
*1322 FILLER_0_4_123
*1323 FILLER_0_4_125
*1324 FILLER_0_4_142
*1325 FILLER_0_4_174
*1326 FILLER_0_4_177
*1327 FILLER_0_4_2
*1328 FILLER_0_4_209
*1329 FILLER_0_4_225
*1330 FILLER_0_4_229
*1331 FILLER_0_4_265
*1332 FILLER_0_4_269
*1333 FILLER_0_4_273
*1334 FILLER_0_4_306
*1335 FILLER_0_4_314
*1336 FILLER_0_4_327
*1337 FILLER_0_4_34
*1338 FILLER_0_4_37
*1339 FILLER_0_4_41
*1340 FILLER_0_4_58
*1341 FILLER_0_4_74
*1342 FILLER_0_4_98
*1343 FILLER_0_5_105
*1344 FILLER_0_5_122
*1345 FILLER_0_5_138
*1346 FILLER_0_5_142
*1347 FILLER_0_5_206
*1348 FILLER_0_5_212
*1349 FILLER_0_5_228
*1350 FILLER_0_5_246
*1351 FILLER_0_5_250
*1352 FILLER_0_5_252
*1353 FILLER_0_5_271
*1354 FILLER_0_5_279
*1355 FILLER_0_5_288
*1356 FILLER_0_5_296
*1357 FILLER_0_5_36
*1358 FILLER_0_5_40
*1359 FILLER_0_5_44
*1360 FILLER_0_5_61
*1361 FILLER_0_5_69
*1362 FILLER_0_5_72
*1363 FILLER_0_5_80
*1364 FILLER_0_5_97
*1365 FILLER_0_6_107
*1366 FILLER_0_6_123
*1367 FILLER_0_6_127
*1368 FILLER_0_6_145
*1369 FILLER_0_6_153
*1370 FILLER_0_6_170
*1371 FILLER_0_6_174
*1372 FILLER_0_6_177
*1373 FILLER_0_6_18
*1374 FILLER_0_6_181
*1375 FILLER_0_6_188
*1376 FILLER_0_6_2
*1377 FILLER_0_6_236
*1378 FILLER_0_6_244
*1379 FILLER_0_6_247
*1380 FILLER_0_6_251
*1381 FILLER_0_6_258
*1382 FILLER_0_6_262
*1383 FILLER_0_6_264
*1384 FILLER_0_6_283
*1385 FILLER_0_6_291
*1386 FILLER_0_6_293
*1387 FILLER_0_6_314
*1388 FILLER_0_6_327
*1389 FILLER_0_6_37
*1390 FILLER_0_6_55
*1391 FILLER_0_6_87
*1392 FILLER_0_7_10
*1393 FILLER_0_7_120
*1394 FILLER_0_7_124
*1395 FILLER_0_7_14
*1396 FILLER_0_7_142
*1397 FILLER_0_7_150
*1398 FILLER_0_7_167
*1399 FILLER_0_7_199
*1400 FILLER_0_7_2
*1401 FILLER_0_7_207
*1402 FILLER_0_7_209
*1403 FILLER_0_7_212
*1404 FILLER_0_7_244
*1405 FILLER_0_7_261
*1406 FILLER_0_7_282
*1407 FILLER_0_7_327
*1408 FILLER_0_7_49
*1409 FILLER_0_7_53
*1410 FILLER_0_7_69
*1411 FILLER_0_7_72
*1412 FILLER_0_7_76
*1413 FILLER_0_7_84
*1414 FILLER_0_8_107
*1415 FILLER_0_8_115
*1416 FILLER_0_8_141
*1417 FILLER_0_8_145
*1418 FILLER_0_8_149
*1419 FILLER_0_8_157
*1420 FILLER_0_8_177
*1421 FILLER_0_8_185
*1422 FILLER_0_8_2
*1423 FILLER_0_8_202
*1424 FILLER_0_8_218
*1425 FILLER_0_8_23
*1426 FILLER_0_8_236
*1427 FILLER_0_8_244
*1428 FILLER_0_8_247
*1429 FILLER_0_8_279
*1430 FILLER_0_8_283
*1431 FILLER_0_8_287
*1432 FILLER_0_8_31
*1433 FILLER_0_8_314
*1434 FILLER_0_8_327
*1435 FILLER_0_8_6
*1436 FILLER_0_8_71
*1437 FILLER_0_8_73
*1438 FILLER_0_8_80
*1439 FILLER_0_8_88
*1440 FILLER_0_9_103
*1441 FILLER_0_9_138
*1442 FILLER_0_9_148